version 2
run General-0-20180425-14:53:36-13588
attr configname General
attr datetime 20180425-14:53:36
attr experiment General
attr inifile omnetpp.ini
attr iterationvars ""
attr iterationvarsf ""
attr measurement ""
attr network EmergencyResponse
attr processid 13588
attr repetition 0
attr replication #0
attr resultdir results
attr runnumber 0
attr seedset 0
param **.NYC_calls.interArrivalTime exponential(20s)
param **.responder_array[*].serviceTime exponential(60s)
param **.ambulance_array[*].serviceTime exponential(1020s)
param **.c1 6
param **.c2 60
param **.NYC_calls.stopTime 604800s

vector 0 EmergencyResponse.ambulance_queue queueLength:vector ETV
attr interpolationmode sample-hold
attr title "queue length, vector"
vector 1 EmergencyResponse.call_queue queueLength:vector ETV
attr interpolationmode sample-hold
attr title "queue length, vector"
vector 2 EmergencyResponse.Hospital lifeTime:vector ETV
attr interpolationmode none
attr title "lifetime of arrived jobs, vector"
attr unit s
0	0	0	0
0	3652	10197.268305558469	1
0	3653	10210.261108325757	0
0	3657	10210.559194892781	1
0	3659	10210.71597633564	2
0	3661	10224.4773720285	3
0	3663	10235.139948889619	4
0	3671	10237.341074568656	5
0	3672	10249.845484382063	4
0	3675	10250.630079409746	3
0	3678	10256.815447963061	2
0	3681	10269.633789896537	1
0	3685	10284.816600120488	2
0	3689	10286.847507013653	1
0	3692	10287.20049015748	0
0	3729	10338.312871678444	1
0	3731	10340.377475840546	2
0	3733	10359.625655103878	3
0	3734	10379.396725515622	2
0	3740	10380.577848028107	1
0	3743	10390.679428570043	0
0	3747	10396.393749175408	1
0	3748	10413.837313108723	0
0	3811	10582.619505995884	1
0	3813	10588.402788195	2
0	3821	10602.876539023428	3
0	3823	10605.371140041052	4
0	3831	10625.644745379049	5
0	3832	10632.201151665101	4
0	3841	10658.887409416831	3
0	3844	10664.797398717906	2
0	3848	10668.008453105576	3
0	3849	10675.29023728284	2
0	3856	10692.136973781166	3
0	3857	10692.768649207083	2
0	3861	10704.796004817008	3
0	3862	10706.048570723391	2
0	3865	10709.904565965462	1
0	3868	10745.45624867745	0
0	3875	10752.09780212882	1
0	3877	10772.509925576399	2
0	3881	10793.661587848835	1
0	3884	10810.888439545468	0
0	3896	10831.378526751778	1
0	3900	10837.414918906891	0
0	5073	13728.978401942978	1
0	5074	13748.690494847948	0
0	14094	38628.461251216392	1
0	14096	38630.299770884052	2
0	14100	38649.107723464745	1
0	14110	38684.912422473518	2
0	14112	38689.634229889397	3
0	14120	38696.232456229896	4
0	14121	38713.618224115829	3
0	14128	38721.800144606145	4
0	14130	38729.363587393137	5
0	14131	38751.414540358097	4
0	14135	38753.369505957629	5
0	14137	38760.430598504369	6
0	14138	38768.796538479598	5
0	14142	38783.010027292784	6
0	14146	38803.206849675415	5
0	14149	38810.960101886268	4
0	14153	38812.351331962987	5
0	14154	38813.97648466919	4
0	14160	38840.891737551071	3
0	14164	38873.451181394402	4
0	14174	38923.590609274305	3
0	14178	38932.332970954076	4
0	14179	38937.24011753246	3
0	14182	38946.615887223091	2
0	14186	38949.313465239212	3
0	14188	38962.831328981652	4
0	14189	38966.852959438656	3
0	14196	38991.882560551726	4
0	14197	38995.422019946154	3
0	14200	38995.902229556269	2
0	14207	39036.63609837627	3
0	14211	39040.809025022317	2
0	14214	39046.076533543771	1
0	14220	39061.705077536162	0
0	14227	39070.046257471793	1
0	14232	39114.68856672316	2
0	14233	39135.166857999296	1
0	14237	39138.020379570244	2
0	14239	39144.410115780701	3
0	14243	39154.225597991464	2
0	14246	39160.301187552942	1
0	14249	39171.64922277479	0
0	16867	45821.430115410185	1
0	16868	45825.339863937737	0
0	16875	45834.714893558383	1
0	16891	45873.63493627291	2
0	16894	45874.555777259202	3
0	16899	45886.104507940754	4
0	16900	45886.751500144709	3
0	16904	45899.644506342366	4
0	16906	45899.968688936225	5
0	16907	45903.146826302605	4
0	16910	45912.270163000294	3
0	16913	45913.103750203579	2
0	16919	45934.284439877886	1
0	16923	45959.867658387346	2
0	16930	46002.349358221907	1
0	16934	46003.456048950621	2
0	16938	46036.529204065001	1
0	16941	46036.590401006963	0
0	16945	46039.8410191242	1
0	16947	46044.238623426037	2
0	16949	46044.458739750393	3
0	16954	46053.036617953417	4
0	16955	46055.574582654636	3
0	16959	46057.615996767524	4
0	16960	46062.195090799339	3
0	16964	46064.964000577724	4
0	16965	46065.640698586992	3
0	16968	46069.135725187347	2
0	16981	46087.049458270641	3
0	16982	46098.748631537246	2
0	16985	46105.252913084627	1
0	16992	46111.245091210971	2
0	17000	46137.585976795946	3
0	17002	46140.395267206605	4
0	17007	46149.109277652008	5
0	17015	46163.162462473149	6
0	17019	46175.234880879873	5
0	17023	46180.102505704753	6
0	17025	46186.1190624427	7
0	17035	46201.93464813746	6
0	17039	46205.102710273009	7
0	17040	46205.246723622415	6
0	17044	46210.796198026555	7
0	17046	46214.826322702443	8
0	17053	46242.155768499465	7
0	17056	46244.581215656756	6
0	17063	46259.707063864116	7
0	17065	46265.474199298379	8
0	17066	46269.831336598492	7
0	17072	46276.33513631023	6
0	17076	46282.90853245867	7
0	17077	46303.194572232859	6
0	17080	46313.129795274527	5
0	17089	46330.943569411743	4
0	17093	46338.180098685115	5
0	17101	46347.268625303224	6
0	17102	46348.396841860592	5
0	17105	46349.294820931966	4
0	17112	46364.019903792412	5
0	17114	46367.781304490942	6
0	17116	46372.865239840282	7
0	17117	46386.539417085627	6
0	17120	46388.65381707029	5
0	17124	46403.006352851177	6
0	17129	46408.227218868909	7
0	17133	46412.470300002476	6
0	17136	46412.711153633033	5
0	17140	46414.80342859962	6
0	17141	46418.967863714422	5
0	17144	46436.132388546438	4
0	17147	46459.915546387457	3
0	17150	46464.210176958069	2
0	17163	46484.325166496075	3
0	17165	46486.957941193064	4
0	17167	46487.836408972858	5
0	17168	46488.530690891926	4
0	17171	46495.06739043659	3
0	17175	46500.042280057297	4
0	17176	46503.102622977325	3
0	17179	46503.528543054538	2
0	17182	46522.651791122977	1
0	17185	46529.771746094883	0
0	18108	48841.463467549995	1
0	18115	48880.772883460712	2
0	18117	48886.80706606187	1
0	18121	48888.159716451267	2
0	18123	48889.271217925807	3
0	18124	48895.675993658272	2
0	18134	48906.156140521403	3
0	18136	48909.732667924816	4
0	18137	48927.044046463402	3
0	18140	48927.690166852556	2
0	18144	48932.848638579996	3
0	18146	48942.370171719941	4
0	18151	48961.283978713891	5
0	18155	48973.349955987935	4
0	18158	48980.62402800733	3
0	18162	48993.835341481709	4
0	18169	49010.456662019486	3
0	18176	49026.661486654213	4
0	18178	49029.1448248509	5
0	18179	49033.554625696519	4
0	18185	49039.768340843132	3
0	18192	49048.546063375628	4
0	18197	49055.079252351188	5
0	18198	49071.262781864512	4
0	18202	49082.363040989731	5
0	18206	49098.300242241933	4
0	18209	49102.659224514703	3
0	18219	49113.033520785948	4
0	18221	49116.867285590956	5
0	18225	49120.386346438685	4
0	18229	49130.593892712687	5
0	18231	49136.743946194247	6
0	18233	49138.410830297539	7
0	18244	49154.866662742181	8
0	18246	49157.292438416693	9
0	18247	49160.702789874109	8
0	18250	49163.041568747806	7
0	18253	49176.411956566247	6
0	18257	49177.613558105206	7
0	18258	49179.167922540398	6
0	18262	49183.183304299479	7
0	18273	49204.222853473743	8
0	18275	49216.100592491946	9
0	18276	49220.427925864437	8
0	18280	49221.91539921792	9
0	18285	49245.58588191745	10
0	18286	49258.377328937889	9
0	18289	49277.390820489398	8
0	18296	49286.591849293758	9
0	18301	49300.163551439504	10
0	18302	49303.329587952875	9
0	18315	49329.121892665009	10
0	18316	49336.434024601211	9
0	18319	49351.484244176056	8
0	18325	49372.677788617415	7
0	18331	49384.247522611396	6
0	18334	49384.628565686893	5
0	18341	49392.022917194084	6
0	18343	49393.010794052799	7
0	18345	49396.897616007416	8
0	18349	49400.914067249139	7
0	18352	49402.292605137428	6
0	18355	49403.973634211165	5
0	18359	49410.320552693476	6
0	18360	49436.948593374199	5
0	18363	49439.787576769645	4
0	18367	49444.748350415152	5
0	18368	49454.387510922964	4
0	18374	49472.757772416788	3
0	18377	49481.310019504414	2
0	18381	49482.553414005906	3
0	18383	49484.630796835775	4
0	18385	49501.763826935078	5
0	18389	49527.612375969416	4
0	18392	49534.120634735872	3
0	18396	49542.548319966112	4
0	18397	49567.570824979848	3
0	18400	49578.197803711853	2
0	18407	49594.76831714927	3
0	18408	49598.531195286717	2
0	18418	49615.03569477649	3
0	18419	49622.466548028856	2
0	18422	49641.798550802741	1
0	18428	49647.170980148651	0
0	18774	50578.743861932562	1
0	18779	50587.834749871448	2
0	18782	50589.845100965161	3
0	18784	50593.51739049676	4
0	18789	50611.575341895944	5
0	18790	50618.170153894894	4
0	18800	50623.939924706612	5
0	18805	50639.874934906227	6
0	18806	50642.851831370594	5
0	18810	50644.529446097305	6
0	18812	50656.770487966692	7
0	18814	50658.318726432199	8
0	18816	50663.473185617211	9
0	18821	50671.146760976466	10
0	18831	50709.556841166836	9
0	18835	50713.262326860871	10
0	18837	50733.28115880181	11
0	18842	50738.749999108749	12
0	18847	50748.935103717134	13
0	18848	50751.594642576372	12
0	18857	50778.417498987615	11
0	18861	50778.945003291873	12
0	18863	50786.583092069237	13
0	18865	50792.854854201729	14
0	18866	50793.544255091572	13
0	18872	50798.893199705441	12
0	18875	50812.561299727212	11
0	18879	50827.083346646137	12
0	18884	50834.242681825058	13
0	18885	50835.229151005687	12
0	18888	50842.226757961292	11
0	18894	50846.982599006106	10
0	18897	50864.917263552139	9
0	18906	50877.107289289908	8
0	18909	50880.337203350164	7
0	18912	50888.822725475303	6
0	18915	50901.506284618563	5
0	18919	50903.077346332095	6
0	18920	50905.251435075237	5
0	18923	50913.856159830267	4
0	18926	50916.375383331194	3
0	18936	50946.101501344626	4
0	18938	50947.578450326825	5
0	18943	50968.130942441838	6
0	18945	50970.43932015333	7
0	18946	50977.763182719325	6
0	18949	50995.034627279408	5
0	18952	51000.531248348781	4
0	18955	51010.333611318279	3
0	18959	51014.105825161794	4
0	18966	51043.527210316672	3
0	18970	51044.371500643964	4
0	18974	51046.405339885755	3
0	18978	51047.383368362402	4
0	18983	51062.012353269622	5
0	18988	51087.982546927541	6
0	18989	51096.475339373774	5
0	18992	51102.092953908034	4
0	18995	51115.10655774586	3
0	18999	51117.50619215413	4
0	19000	51122.772210955727	3
0	19007	51125.534765921992	4
0	19009	51145.173237684712	5
0	19014	51148.673913913494	6
0	19018	51162.911061514156	5
0	19021	51166.753360947677	4
0	19027	51199.064267763319	3
0	19031	51199.364155684881	4
0	19033	51205.099385189319	5
0	19034	51211.20748795563	4
0	19037	51213.97136606482	3
0	19043	51227.166542363321	2
0	19049	51240.456700889914	1
0	19059	51251.599837993161	2
0	19060	51253.099862133317	1
0	19064	51263.980976427732	2
0	19065	51267.096919362822	1
0	19068	51270.941871533505	0
0	19273	51796.761238652035	1
0	19277	51802.476395540538	0
0	19281	51804.083350427443	1
0	19282	51812.815529798381	0
0	19326	51925.005813447359	1
0	19330	51941.252843887415	0
0	19334	51943.537220566509	1
0	19335	51948.043454082711	0
0	19339	51959.320117870766	1
0	19340	51965.992615390496	0
0	20733	55259.141929213151	1
0	20740	55320.06763046779	0
0	20795	55413.164258078212	1
0	20797	55416.457756657132	2
0	20799	55424.319878346461	3
0	20809	55439.883718247268	2
0	20812	55444.525945257864	1
0	20815	55445.872189973163	0
0	20819	55447.719605149025	1
0	20820	55456.521898325943	0
0	21814	57851.08072717439	1
0	21815	57854.43514943063	0
0	21824	57864.687152052314	1
0	21825	57868.52319989547	0
0	21891	58103.652318460369	1
0	21892	58106.052646431428	0
0	22014	58392.111349174756	1
0	22016	58395.822651647002	0
0	22020	58397.532709065388	1
0	22022	58398.14710865678	2
0	22024	58401.133332256128	3
0	22029	58402.012048230817	4
0	22030	58402.544601948135	3
0	22033	58410.724491746991	2
0	22040	58425.770859570684	3
0	22041	58432.339727668235	2
0	22045	58433.424011206942	3
0	22047	58434.445446310675	4
0	22051	58449.252476944711	3
0	22058	58461.753474158903	4
0	22060	58476.603887027541	5
0	22067	58490.432770772211	4
0	22073	58504.50898276446	3
0	22076	58504.993476829819	2
0	22080	58508.436758093372	3
0	22082	58525.813720724637	4
0	22087	58540.827277352731	5
0	22089	58541.167654484532	6
0	22093	58542.343598925305	5
0	22096	58548.37640485998	4
0	22103	58567.810501368069	5
0	22107	58594.827431128644	4
0	22113	58609.190735127579	3
0	22120	58620.963586145137	4
0	22128	58627.42957364021	5
0	22132	58633.441034573279	4
0	22136	58644.271162756916	5
0	22137	58664.095847694297	4
0	22141	58674.993836650858	5
0	22146	58690.594401024039	6
0	22148	58690.780707394515	7
0	22153	58692.745746573267	8
0	22154	58695.646764356747	7
0	22158	58701.710768277875	8
0	22160	58711.578452932666	9
0	22161	58729.136518983753	8
0	22164	58734.805114965976	7
0	22167	58736.569279162865	6
0	22170	58737.603480219166	5
0	22173	58739.512167361955	4
0	22176	58742.969244591944	3
0	22180	58755.38334689754	4
0	22181	58756.387574862958	3
0	22187	58764.019872234149	2
0	22190	58770.743253389035	1
0	22194	58790.366179507132	2
0	22195	58791.097039836472	1
0	22204	58847.057098870164	0
0	22211	58857.159952779316	1
0	22213	58882.36028550262	2
0	22217	58902.082751278229	1
0	22224	58907.549887220199	2
0	22225	58907.936828514566	1
0	22229	58923.546928792803	2
0	22231	58931.629511290359	3
0	22236	58953.020505661171	4
0	22246	58984.97251991234	3
0	22249	58987.901996462546	2
0	22259	59008.873115531783	3
0	22260	59012.611514765286	2
0	22264	59018.946176574622	3
0	22266	59029.204175159141	4
0	22268	59030.000690595992	5
0	22273	59042.405589966992	6
0	22277	59045.439440532569	5
0	22281	59054.716713059442	6
0	22285	59060.647824024435	5
0	22288	59063.758128894758	4
0	22291	59069.386590184234	3
0	22297	59072.429147304916	2
0	22304	59076.141379964436	3
0	22308	59085.346025945627	2
0	22311	59089.706782693439	1
0	22314	59092.480397391962	0
0	22388	59210.428441594288	1
0	22389	59217.633846339517	0
0	22572	59594.216375276519	1
0	22574	59600.628322875487	2
0	22576	59605.804710383925	3
0	22577	59609.27476680296	2
0	22580	59611.127164377707	1
0	22584	59613.496450264779	2
0	22585	59613.961158162462	1
0	22592	59629.304464429467	2
0	22593	59634.145714614119	1
0	22596	59638.14453411106	0
0	22729	59999.050830842234	1
0	22731	59999.632892118902	2
0	22733	60003.166062590105	3
0	22735	60005.629199440348	4
0	22736	60006.127357268794	3
0	22740	60011.387653789734	4
0	22744	60028.794431305056	3
0	22748	60034.335655048218	4
0	22753	60045.485960021332	5
0	22760	60078.388056267337	4
0	22763	60088.214417748448	3
0	22770	60103.350076676407	4
0	22771	60110.101698189158	3
0	22775	60112.365093734996	4
0	22777	60118.852030566715	5
0	22778	60119.666940143608	4
0	22785	60178.848881141085	5
0	22795	60208.922910344002	4
0	22810	60234.4886912786	5
0	22815	60235.277327430204	6
0	22818	60246.754925388927	7
0	22822	60273.334018904149	6
0	22826	60283.221938205334	7
0	22828	60295.031211503067	8
0	22830	60295.787998059907	9
0	22832	60296.918053633317	10
0	22833	60319.711670301561	9
0	22836	60324.237445584551	8
0	22849	60347.690383250884	9
0	22850	60358.313469426918	8
0	22860	60367.460134682424	9
0	22862	60375.312399968082	10
0	22864	60377.51415111408	11
0	22868	60400.931115640157	10
0	22875	60411.677736889415	11
0	22876	60413.067095280946	10
0	22879	60421.81906815647	9
0	22882	60429.367028301893	8
0	22886	60429.390420315721	9
0	22888	60439.002380052626	10
0	22889	60443.876205500162	9
0	22899	60457.233704241439	10
0	22900	60461.440945938651	9
0	22903	60462.192143572354	8
0	22906	60462.309824695501	7
0	22910	60469.551405619125	8
0	22912	60473.570697177534	9
0	22919	60490.979608574518	8
0	22928	60502.35883770009	7
0	22931	60505.423697057853	6
0	22934	60510.646712313272	5
0	22938	60515.276042764005	6
0	22943	60534.120280440558	7
0	22945	60539.440215838913	8
0	22947	60551.978909444037	9
0	22948	60555.871967142676	8
0	22954	60579.51368358074	7
0	22958	60590.150832251894	8
0	22962	60590.85648457271	7
0	22965	60594.731935431085	6
0	22968	60604.479785598728	5
0	22971	60606.289370743207	4
0	22975	60606.899222561748	5
0	22979	60614.506356521373	4
0	22985	60616.289910812689	3
0	22988	60622.337306799875	2
0	22992	60631.385910211823	3
0	22994	60639.59780039877	4
0	23001	60655.364975860885	3
0	23005	60678.252951296142	4
0	23007	60680.83196101781	5
0	23008	60688.423958337098	4
0	23011	60690.869233078039	3
0	23014	60692.784389499209	2
0	23017	60696.755874945431	1
0	23020	60713.13263178979	0
0	25700	67126.693925443619	1
0	25702	67130.452560120006	2
0	25709	67144.18411368396	1
0	25713	67144.973667225262	2
0	25715	67146.994765033348	3
0	25719	67160.955397218738	2
0	25723	67169.51920614277	3
0	25728	67193.591488849213	4
0	25729	67197.816917923197	3
0	25733	67198.233453405984	4
0	25735	67204.887337723385	5
0	25737	67212.691900330574	6
0	25741	67220.041221858793	5
0	25751	67231.058959326111	6
0	25755	67233.307868550275	5
0	25758	67238.315461150315	4
0	25761	67245.336534185644	3
0	25765	67248.761374314219	4
0	25770	67261.033629506204	5
0	25772	67263.401384927425	6
0	25773	67267.684539344697	5
0	25779	67293.824630761638	4
0	25791	67341.765224590074	3
0	25795	67344.497339400585	4
0	25796	67345.53626323341	3
0	25799	67356.995045898596	2
0	25803	67359.945531830546	3
0	25804	67365.103763837731	2
0	25808	67369.764938404643	3
0	25809	67369.779165331847	2
0	25812	67379.844217494588	1
0	25819	67397.057452115373	2
0	25821	67402.944639077242	3
0	25828	67410.769190772396	2
0	25832	67450.16946648433	3
0	25833	67453.20750891879	2
0	25837	67465.341655653193	3
0	25839	67485.349686242003	4
0	25841	67486.221446870605	5
0	25848	67494.167384765977	4
0	25851	67517.826573394736	3
0	25860	67523.380287055404	2
0	25863	67525.170409481919	1
0	25866	67535.872357464259	0
0	25870	67538.870189285251	1
0	25871	67549.648556520724	0
0	25875	67551.45613251136	1
0	25879	67555.266229168905	0
0	26078	67947.617960765358	1
0	26079	67953.346353691966	0
0	26395	68772.840038073547	1
0	26396	68781.281837154741	0
0	26400	68794.057263129848	1
0	26404	68810.90816484844	0
0	26411	68821.03704052195	1
0	26418	68873.178557622441	0
0	26422	68883.729690739043	1
0	26423	68886.936052286046	0
0	26430	68893.364642875808	1
0	26432	68893.819069586749	2
0	26433	68913.445134306412	1
0	26440	68928.099476478475	2
0	26441	68929.812408118561	1
0	26444	68954.395855054468	0
0	27728	72510.558631275485	1
0	27733	72517.466402627879	2
0	27734	72518.492867205626	1
0	27737	72521.972559936514	0
0	27744	72562.53275772078	1
0	27745	72577.449713985687	0
0	27864	72909.850735843707	1
0	27869	72913.779103048507	2
0	27870	72915.987407858695	1
0	27873	72930.287997451344	0
0	27888	72947.683638390261	1
0	27892	72957.804813934851	0
0	27896	72963.297072640138	1
0	27897	72975.793621942098	0
0	27901	72980.24203538605	1
0	27915	73019.017526854825	2
0	27916	73027.042606739247	1
0	27923	73035.01566639749	2
0	27928	73055.746758473035	3
0	27930	73060.256812451281	4
0	27931	73072.943090252798	3
0	27937	73077.284471048752	2
0	27941	73091.231910248181	3
0	27943	73100.151633568425	4
0	27945	73109.013368043955	5
0	27949	73130.344913142581	4
0	27955	73138.899030519614	3
0	27959	73165.47987853066	4
0	27963	73171.017376129635	3
0	27966	73172.788058504592	2
0	27969	73179.95062787802	1
0	27973	73204.618342984096	2
0	27975	73226.569787793168	3
0	27979	73249.764699940255	2
0	27982	73259.255926769665	1
0	27985	73260.912224417857	0
0	27995	73289.621757850149	1
0	27996	73289.936181423504	0
0	28000	73291.399327837577	1
0	28001	73297.959293210768	0
0	28005	73338.834462610741	1
0	28006	73341.375638020856	0
0	28016	73358.210077076045	1
0	28017	73400.358993676757	0
0	28029	73435.228298913531	1
0	28030	73443.794992264378	0
0	28204	73878.392956281497	1
0	28206	73880.275717307669	2
0	28208	73899.269279282456	3
0	28209	73924.182162678329	2
0	28216	73925.574628849935	3
0	28218	73931.777665112329	4
0	28219	73937.481249929786	3
0	28222	73942.437301659751	2
0	28225	73952.944763438437	1
0	28228	73955.171440074132	0
0	29280	76712.503465120005	1
0	29283	76716.658936930777	2
0	29286	76722.492795461507	3
0	29287	76722.500980036305	2
0	29290	76723.175992344566	1
0	29294	76729.260189657355	2
0	29298	76743.940387096293	1
0	29304	76745.439766099875	0
0	29308	76748.414646119004	1
0	29310	76749.24971451298	2
0	29311	76759.417192857227	1
0	29318	76766.924319662931	2
0	29326	76792.497847497262	3
0	29328	76795.591181816613	4
0	29329	76798.858439777384	3
0	29333	76801.459343387796	4
0	29334	76811.571918149138	3
0	29340	76829.351995047485	2
0	29343	76829.640082393681	1
0	29347	76830.106844682351	2
0	29349	76832.037726764928	3
0	29350	76837.806913358661	2
0	29354	76849.344079152119	3
0	29361	76872.976752238687	2
0	29364	76873.033278658976	1
0	29367	76874.72426807018	0
0	29371	76894.421464061346	1
0	29376	76896.065352058197	2
0	29378	76906.62097545883	3
0	29382	76917.299105252019	2
0	29386	76921.61259689211	3
0	29387	76923.767498804597	2
0	29391	76929.654439549799	3
0	29395	76945.176459521089	2
0	29398	76948.269636418519	1
0	29405	76964.099079117799	2
0	29407	76966.196923046834	3
0	29408	76968.018316280928	2
0	29411	76973.57469416699	1
0	29417	77003.738853038979	0
0	29491	77208.693663608919	1
0	29492	77219.758453384839	0
0	29683	77740.823606241657	1
0	29684	77746.777635095124	0
0	29773	77926.402085951674	1
0	29774	77927.154339006179	0
0	29968	78366.13823069358	1
0	29969	78368.821617917432	0
0	30281	79237.677381046236	1
0	30283	79237.792115831142	2
0	30285	79237.880946229373	3
0	30290	79250.628727110905	4
0	30295	79251.960350808797	5
0	30297	79252.59861112546	6
0	30298	79258.925708823931	5
0	30301	79272.238124509085	4
0	30308	79279.151870157671	5
0	30313	79280.701243050266	6
0	30314	79283.047182314145	5
0	30317	79303.583286203487	4
0	30323	79313.614938409394	3
0	30327	79314.433983240659	4
0	30329	79326.229603077873	5
0	30330	79330.735759637445	4
0	30346	79369.786404722632	5
0	30351	79379.660731966698	6
0	30352	79381.129933377358	5
0	30356	79407.482096637156	6
0	30364	79414.491793019248	7
0	30372	79436.716095781232	8
0	30373	79438.00076070003	7
0	30376	79446.219132154501	6
0	30380	79471.638367334331	7
0	30382	79477.039490538727	8
0	30384	79491.251576259934	9
0	30389	79510.499616598437	10
0	30390	79514.415454996891	9
0	30393	79520.287708270704	8
0	30399	79548.887385406652	7
0	30403	79550.929919132788	8
0	30404	79551.544671156363	7
0	30407	79559.974201397706	6
0	30410	79567.234253647929	5
0	30428	79585.679324161925	4
0	30431	79586.537450444442	3
0	30434	79588.668914288786	2
0	30439	79612.412303787091	1
0	30442	79614.633331540605	0
0	30456	79628.182215721682	1
0	30459	79635.392172339605	2
0	30461	79636.891341131952	1
0	30464	79640.926976919381	0
0	30470	79653.440974522729	1
0	30472	79663.08697447191	0
0	30486	79734.928036896	1
0	30488	79741.218931088195	2
0	30493	79758.115931100449	3
0	30494	79761.53467378377	2
0	30501	79762.501218818579	3
0	30502	79774.724142487943	2
0	30506	79787.963858996247	3
0	30507	79791.176136142736	2
0	30510	79794.227567562574	1
0	30513	79805.331494869103	0
0	31096	81218.25417579467	1
0	31106	81238.587305796825	0
0	31113	81248.832191126909	1
0	31115	81261.860986044063	2
0	31123	81283.883689957094	3
0	31124	81290.814001532044	2
0	31128	81291.317489861412	3
0	31129	81313.221613451637	2
0	31136	81338.852450739892	3
0	31140	81341.382161170826	2
0	31143	81341.91022204634	1
0	31146	81349.390181581853	0
0	31150	81354.022499096108	1
0	31152	81356.10630225499	2
0	31159	81383.381337936574	1
0	31163	81386.170172001454	2
0	31165	81387.014337103742	3
0	31166	81391.924780147679	2
0	31176	81419.205192548463	3
0	31178	81429.316939894024	4
0	31179	81433.233753148487	3
0	31183	81438.595847839242	4
0	31190	81450.997628079392	3
0	31193	81455.415784609509	2
0	31199	81467.710759621326	1
0	31202	81468.252706803516	0
0	31206	81473.876846629377	1
0	31207	81476.793289487403	0
0	32616	84747.67859375088	1
0	32617	84751.886249159158	0
0	32635	84790.662649683054	1
0	32636	84792.698396337365	0
0	32640	84801.900177331511	1
0	32641	84819.160711078973	0
0	33294	86452.022759586236	1
0	33296	86452.633353993947	2
0	33300	86460.333785116113	1
0	33303	86463.016478243254	0
0	33307	86464.784981109307	1
0	33311	86475.150631182305	0
0	33315	86475.414708569583	1
0	33316	86476.498334369582	0
0	33328	86507.33195296706	1
0	33333	86513.993622147774	2
0	33340	86530.31555105816	1
0	33343	86530.583617139383	0
0	33347	86539.349672413763	1
0	33355	86551.517997614206	2
0	33356	86557.529888297896	1
0	33362	86561.117424504977	0
0	33552	87047.026523371965	1
0	33554	87047.448663749061	2
0	33555	87050.026697174825	1
0	33558	87052.482993954285	0
0	33565	87069.123862246131	1
0	33566	87071.391464476667	0
0	33627	87232.467788058644	1
0	33629	87233.404052966575	2
0	33636	87257.538856140715	1
0	33642	87277.253010824757	0
0	33649	87291.202347127901	1
0	33650	87296.748200911876	0
0	33654	87297.683238233387	1
0	33662	87309.012761532163	2
0	33663	87322.340400544407	1
0	33670	87330.228527249048	2
0	33672	87331.813156660351	3
0	33677	87338.703968139072	4
0	33678	87348.291766806268	3
0	33684	87354.922281714893	2
0	33688	87355.000506024161	3
0	33690	87370.055203343081	4
0	33692	87388.099510510782	5
0	33694	87388.280679164261	6
0	33695	87391.222663047942	5
0	33698	87405.596424657951	4
0	33701	87408.118328891474	3
0	33704	87430.970118577149	2
0	33707	87457.876023576262	1
0	33710	87460.044399141356	0
0	33896	87812.20468827417	1
0	33897	87815.280756601597	0
0	33907	87824.051265928426	1
0	33908	87826.834119935637	0
0	35009	90161.280984799034	1
0	35011	90167.614265565646	2
0	35013	90174.895216386406	3
0	35014	90183.554820474102	2
0	35027	90207.73379319752	3
0	35031	90219.553904857871	2
0	35035	90221.4378904753	3
0	35040	90234.95610818442	4
0	35041	90237.086689188141	3
0	35045	90249.107814072042	4
0	35047	90252.036604586529	5
0	35055	90275.635444450271	6
0	35060	90283.276379294901	7
0	35061	90290.762179700002	6
0	35073	90346.818550018442	5
0	35079	90348.864645689862	6
0	35082	90352.098117514177	7
0	35086	90355.782228411224	6
0	35090	90357.129138944477	7
0	35092	90362.180174804301	8
0	35093	90362.24324866457	7
0	35097	90363.065646617762	8
0	35098	90375.404450157197	7
0	35102	90375.608963425367	8
0	35109	90383.541431264001	7
0	35119	90387.870726452366	8
0	35124	90412.923204136949	9
0	35129	90425.405889682761	10
0	35130	90431.256495653764	9
0	35134	90432.911661808258	10
0	35136	90433.229112193515	11
0	35138	90439.863328418896	12
0	35140	90453.320156948295	13
0	35142	90454.523562267193	14
0	35143	90464.821827890714	13
0	35146	90470.164720700765	12
0	35152	90477.127357188669	11
0	35165	90490.331414683298	12
0	35167	90494.264732637213	13
0	35169	90506.27028108963	14
0	35171	90507.381672950183	15
0	35179	90539.786074474198	16
0	35184	90551.597083239069	17
0	35185	90552.979294921384	16
0	35192	90566.895128145825	17
0	35196	90575.636995329711	16
0	35199	90576.357225437264	15
0	35202	90578.363640173266	14
0	35205	90583.511069124449	13
0	35208	90584.667128888188	12
0	35215	90595.605597341164	13
0	35216	90603.760622166992	12
0	35219	90638.772147376597	11
0	35222	90641.130656550991	10
0	35225	90668.640446568039	9
0	35228	90669.239068222561	8
0	35231	90671.91711517837	7
0	35240	90695.180377080604	6
0	35243	90705.745021181965	5
0	35246	90708.780809215689	4
0	35250	90711.378221562719	5
0	35251	90721.443432045903	4
0	35254	90723.690128980328	3
0	35257	90727.861759381183	2
0	35260	90733.194503533416	1
0	35263	90746.967806248192	0
0	35345	90859.588030213365	1
0	35355	90886.85495123191	2
0	35357	90915.853461718905	1
0	35363	90920.214489488377	2
0	35368	90923.518038217424	3
0	35373	90930.680035211342	4
0	35376	90931.355817865675	5
0	35381	90939.96577390263	6
0	35388	90953.824499740993	7
0	35391	90954.576217001037	8
0	35393	90955.509327035084	9
0	35394	90957.988103896794	8
0	35397	90958.667731543509	7
0	35404	90981.665375869531	8
0	35411	90994.034754895205	7
0	35414	90994.684374326225	6
0	35418	90997.180792296085	7
0	35420	91006.079571415267	8
0	35422	91006.604953268757	9
0	35430	91019.82410719811	10
0	35431	91026.789903589194	9
0	35437	91029.094586395288	8
0	35441	91040.256999138881	9
0	35442	91044.41668080145	8
0	35449	91056.410819442948	9
0	35450	91056.884966505426	8
0	35453	91062.783417756173	7
0	35457	91064.864754282446	8
0	35458	91067.72869188112	7
0	35464	91069.016593631579	6
0	35468	91072.089442137811	7
0	35469	91076.349632338317	6
0	35476	91094.600887751685	7
0	35480	91125.961866408042	6
0	35486	91132.510070278798	5
0	35489	91139.324777639591	4
0	35493	91139.413639985332	5
0	35494	91148.185891111746	4
0	35498	91150.061745913086	5
0	35500	91150.839682915866	6
0	35501	91154.62248648091	5
0	35508	91172.61025562456	6
0	35512	91178.796014578372	5
0	35515	91190.807821287866	4
0	35521	91201.436823409233	3
0	35528	91204.099203770351	4
0	35529	91216.480790559811	3
0	35532	91221.490893004709	2
0	35536	91225.578925301783	3
0	35538	91229.234963624161	4
0	35543	91236.447302627011	5
0	35544	91254.833604310846	4
0	35550	91268.396481844452	3
0	35559	91287.343552964105	2
0	35563	91289.4593342567	3
0	35564	91295.095392087011	2
0	35567	91312.09267216044	1
0	35570	91312.358453761246	0
0	35577	91314.767296618082	1
0	35579	91316.924733965712	2
0	35580	91317.396523637733	1
0	35587	91323.537495905652	2
0	35588	91326.966060199445	1
0	35591	91331.15795765787	0
0	35621	91401.58440570274	1
0	35622	91416.174341538478	0
0	35702	91604.099609467195	1
0	35703	91617.908490157003	0
0	36494	93676.391189724355	1
0	36495	93677.462208036953	0
0	36499	93690.875804579402	1
0	36501	93708.082607083442	2
0	36503	93709.292909372715	3
0	36507	93727.652206621937	2
0	36511	93732.479426723117	3
0	36515	93747.56774130937	2
0	36521	93755.959425885019	1
0	36527	93760.80476809392	0
0	36536	93774.168601738477	1
0	36543	93790.911288162636	0
0	36552	93796.791939378977	1
0	36553	93803.624324452667	0
0	36557	93813.656678687572	1
0	36558	93819.548849605702	0
0	36763	94351.689612667053	1
0	36764	94358.546808102131	0
0	36779	94380.374965499543	1
0	36783	94392.885400891179	0
0	36852	94519.377451370852	1
0	36853	94521.449217759386	0
0	36865	94527.531185563076	1
0	36866	94530.339994960679	0
0	36870	94533.445651523723	1
0	36871	94537.672247494623	0
0	36875	94557.48400744477	1
0	36877	94559.44596029195	2
0	36881	94571.64875567093	1
0	36884	94576.08464654605	0
0	36888	94577.292732717555	1
0	36892	94612.903590106892	0
0	37049	94924.633654686445	1
0	37050	94931.321751453493	0
0	37054	94938.498744515976	1
0	37059	94941.308731951102	2
0	37064	94963.537867520753	3
0	37065	94967.37619020087	2
0	37068	94970.365524483061	1
0	37071	94976.931405753723	0
0	37078	94994.331555106802	1
0	37088	95021.296981562183	0
0	37092	95023.053083572528	1
0	37097	95033.617258164338	2
0	37099	95050.336772620039	3
0	37100	95053.385462518277	2
0	37104	95059.124369975003	3
0	37109	95061.699968547559	4
0	37111	95069.207324885065	5
0	37112	95070.369068250181	4
0	37116	95070.805110409097	5
0	37117	95082.981565093915	4
0	37127	95111.607747858469	5
0	37131	95113.547562609455	4
0	37134	95118.350979245311	3
0	37143	95124.505378871795	2
0	37149	95130.625770200567	1
0	37152	95139.059841856997	0
0	37161	95158.170857509668	1
0	37162	95181.817217664901	0
0	43558	112022.89777671553	1
0	43562	112031.98376478499	0
0	43577	112053.004881983089	1
0	43581	112063.147787991082	0
0	43585	112063.413738520573	1
0	43590	112066.740446683847	2
0	43591	112072.6177044233	1
0	43595	112073.045198340592	2
0	43600	112091.779882521276	3
0	43601	112096.013647095025	2
0	43613	112136.064138493732	1
0	43619	112144.151010428425	2
0	43622	112147.349046420468	3
0	43623	112148.509262727571	2
0	43626	112157.836098302546	1
0	43632	112163.482181494375	0
0	43646	112178.837067646969	1
0	43647	112185.035566328021	0
0	43651	112187.309435200211	1
0	43652	112195.800774203089	0
0	43678	112254.385915047224	1
0	43679	112260.281929648079	0
0	43689	112294.631872943122	1
0	43690	112295.305454200196	0
0	44444	114066.594105789236	1
0	44446	114072.616674463328	2
0	44447	114072.931589939749	1
0	44451	114073.599851458228	2
0	44455	114097.821881382479	1
0	44458	114105.238704818342	0
0	44465	114111.536299006214	1
0	44470	114131.295878169418	2
0	44471	114131.992559480233	1
0	44474	114133.5853770261	0
0	44481	114137.602385961121	1
0	44488	114154.105060190479	0
0	44492	114154.743956589636	1
0	44498	114159.010823677916	0
0	44601	114354.104189580013	1
0	44602	114356.084489987562	0
0	44606	114360.074925854233	1
0	44608	114362.50042215847	2
0	44610	114372.802308230059	3
0	44614	114386.388129305891	2
0	44618	114391.417869716131	3
0	44619	114399.136968305832	2
0	44625	114404.313322059265	1
0	44628	114414.8445935756	0
0	44756	114722.002422447135	1
0	44757	114728.833162087132	0
0	44766	114749.349688730531	1
0	44770	114762.122226214897	0
0	44774	114762.633262738614	1
0	44777	114765.321040979957	2
0	44778	114768.560666785111	1
0	44791	114790.643050447021	2
0	44793	114795.48857915614	1
0	44797	114797.133597355858	2
0	44802	114801.697807298061	3
0	44805	114803.235362018767	4
0	44808	114804.930734452569	5
0	44813	114812.229008996269	6
0	44815	114812.554399797682	7
0	44816	114817.507710299679	6
0	44820	114824.771274418308	7
0	44822	114824.963191349415	8
0	44824	114832.667262730609	9
0	44825	114836.437194598641	8
0	44831	114853.059915974132	7
0	44834	114856.135770201918	6
0	44838	114864.848978318481	7
0	44839	114871.900590077485	6
0	44851	114917.403831779113	5
0	44857	114918.459842054011	4
0	44860	114926.137865984191	3
0	44863	114927.804813118344	2
0	44866	114930.449409209505	1
0	44869	114930.470310217389	0
0	44873	114944.614253804592	1
0	44875	114946.219015497614	2
0	44877	114949.033338702749	3
0	44878	114956.821536293324	2
0	44885	114972.084065609166	3
0	44890	114999.270845192417	4
0	44891	115000.398426040511	3
0	44897	115011.77407369648	2
0	44904	115032.499709711853	3
0	44905	115038.787707566573	2
0	44908	115044.07756056494	1
0	44911	115044.871300341333	0
0	44926	115086.548318423894	1
0	44927	115086.816419179043	0
0	45587	116549.298089673774	1
0	45588	116578.916297001148	0
0	45598	116604.286709502385	1
0	45603	116630.105300484271	2
0	45604	116630.200393997923	1
0	45608	116633.56143506461	2
0	45609	116636.685553864189	1
0	45616	116643.493554736629	2
0	45617	116647.955706479826	1
0	45620	116658.107562735796	0
0	47339	120651.040464973513	1
0	47347	120664.764834068224	2
0	47351	120681.84751497942	1
0	47354	120683.475974088115	0
0	47406	120804.387905554781	1
0	47414	120815.339274254676	2
0	47415	120818.840019251567	1
0	47419	120820.178603190839	2
0	47421	120821.138877097761	3
0	47425	120838.569064377088	2
0	47428	120844.304494517802	1
0	47435	120846.703311482562	2
0	47437	120852.106849035526	3
0	47438	120853.254214969394	2
0	47441	120879.128334142795	1
0	47444	120885.97429682475	0
0	47453	120893.667839515458	1
0	47464	120929.511435940846	2
0	47465	120936.030535724973	1
0	47475	120943.626958348373	2
0	47476	120962.676200914248	1
0	47483	120968.88248096961	2
0	47485	120975.489672871703	3
0	47487	120975.686343519684	4
0	47488	120977.754618480612	3
0	47491	121006.326361155868	2
0	47497	121016.42235152381	1
0	47500	121033.918202972148	0
0	47507	121042.387291686677	1
0	47508	121042.935179544284	0
0	48424	123237.321410441938	1
0	48425	123241.499624880176	0
0	53877	136945.721370866045	1
0	53881	136975.373117496008	0
0	54067	137427.623041722341	1
0	54075	137439.759496769575	2
0	54079	137459.013196820301	1
0	54085	137472.284116243732	0
0	54100	137485.925540617426	1
0	54105	137488.734619799824	2
0	54106	137491.619676893818	1
0	54110	137496.850402807665	2
0	54112	137497.485696446409	3
0	54117	137519.52748835116	4
0	54121	137545.765051845058	3
0	54124	137555.584044553737	2
0	54127	137555.945611657158	1
0	54131	137572.800677962601	2
0	54133	137575.029034127035	3
0	54134	137580.978099133287	2
0	54143	137595.655492289118	1
0	54149	137612.499829098888	0
0	54158	137627.546042028871	1
0	54159	137627.678147839307	0
0	54179	137664.469245643097	1
0	54184	137667.296568280592	2
0	54186	137668.952255159168	3
0	54188	137684.443201045672	4
0	54192	137720.320101930266	3
0	54201	137731.899917419495	2
0	54204	137737.265481912381	1
0	54208	137742.764394299286	2
0	54212	137754.194524070297	1
0	54216	137764.596478745971	2
0	54218	137772.484737422965	3
0	54222	137776.516819166411	2
0	54228	137781.614714234622	1
0	54234	137789.921609397699	0
0	54241	137806.955886170028	1
0	54243	137813.961119088654	2
0	54245	137815.246682196709	3
0	54252	137820.909671834266	2
0	54255	137822.897051199697	1
0	54258	137858.188608017409	0
0	54281	137913.716810674938	1
0	54286	137924.456165259087	2
0	54287	137925.669964682619	1
0	54290	137928.487175304545	0
0	54294	137937.89836438393	1
0	54296	137944.023244181286	2
0	54298	137948.511227094533	3
0	54305	137965.058033275372	2
0	54312	137968.026827413652	3
0	54314	137971.282715910951	4
0	54315	137972.505041267449	3
0	54319	137973.688560498699	4
0	54320	137973.772181918276	3
0	54329	137998.90368337501	2
0	54335	138012.364784309219	1
0	54338	138014.209137865763	0
0	54350	138038.214762198091	1
0	54351	138044.30274475566	0
0	54358	138056.102720034814	1
0	54360	138069.966710735175	2
0	54362	138070.980923366935	3
0	54370	138099.496696876617	4
0	54372	138103.964254957337	5
0	54374	138115.231341202147	6
0	54384	138143.553180391072	5
0	54388	138146.942732207039	6
0	54390	138147.342641062499	7
0	54391	138155.080243957864	6
0	54398	138158.935163478259	7
0	54402	138162.592163451921	6
0	54409	138171.257107122298	7
0	54417	138182.572326219687	8
0	54418	138191.527549789099	7
0	54425	138199.639914403622	8
0	54430	138205.550811547182	9
0	54434	138235.110971905836	8
0	54438	138238.03446301993	9
0	54439	138238.332236849495	8
0	54443	138239.021932690553	9
0	54450	138250.64332722824	8
0	54453	138252.193602314511	7
0	54456	138253.36945688667	6
0	54459	138265.192980329223	5
0	54462	138275.719921147236	4
0	54469	138293.675647870752	5
0	54470	138295.809655372929	4
0	54473	138300.42749273694	3
0	54476	138325.135562468977	2
0	54479	138327.450296358661	1
0	54482	138331.135994095305	0
0	54524	138411.42167565619	1
0	54529	138415.48383452746	2
0	54531	138418.04220621923	3
0	54532	138418.365476927904	2
0	54535	138424.832768804813	1
0	54539	138438.269164366173	2
0	54540	138442.214715345382	1
0	54544	138461.272686531704	2
0	54546	138469.901929877316	3
0	54547	138485.797073177672	2
0	54557	138509.971970400765	3
0	54564	138521.925101426547	2
0	54568	138522.773883910862	3
0	54570	138548.607862410627	4
0	54578	138586.297150358141	5
0	54579	138594.421540392478	4
0	54582	138602.887783223549	3
0	54589	138610.208175213636	4
0	54594	138634.399107005533	5
0	54602	138656.567162789869	6
0	54604	138658.044724920571	7
0	54606	138660.312641130641	8
0	54607	138676.973401414228	7
0	54610	138677.746082013159	6
0	54614	138680.825561460841	7
0	54615	138683.368787404574	6
0	54621	138698.868689620368	5
0	54625	138701.041468610902	6
0	54629	138713.704436802131	5
0	54632	138726.65930820384	4
0	54636	138730.653592774033	5
0	54638	138732.290991762383	6
0	54639	138738.461959832492	5
0	54642	138747.25784006623	4
0	54648	138752.85693691997	3
0	54660	138789.520262198808	2
0	54674	138814.862674905889	3
0	54677	138817.284027903066	4
0	54679	138818.887822563682	3
0	54683	138819.0819560133	4
0	54685	138820.359988649719	5
0	54686	138823.739778582559	4
0	54690	138825.911853990031	5
0	54691	138852.049433874238	4
0	54700	138869.078397153514	3
0	54704	138873.914209593941	4
0	54708	138879.519775495052	3
0	54715	138896.51668127005	4
0	54716	138899.806556177699	3
0	54720	138913.885333141408	4
0	54724	138916.959491543204	3
0	54728	138917.380028087697	4
0	54730	138918.023899501719	5
0	54735	138929.091609298507	6
0	54740	138949.392765849807	7
0	54742	138952.147590429261	8
0	54743	138960.37251142522	7
0	54746	138963.514110238156	6
0	54749	138970.004537125729	5
0	54753	138977.555285913988	6
0	54763	139019.130907706183	5
0	54767	139022.201271666658	6
0	54775	139050.84101711229	7
0	54780	139063.639417114285	8
0	54784	139072.457252346476	7
0	54790	139076.482348794594	6
0	54795	139078.524107720858	5
0	54799	139080.940110056329	6
0	54804	139088.886833881293	7
0	54807	139091.507926270012	8
0	54808	139095.270449895456	7
0	54816	139123.221892985571	6
0	54820	139124.793303744089	7
0	54825	139132.126532634699	8
0	54832	139136.978914904062	9
0	54835	139142.637192555623	10
0	54837	139148.739363524236	9
0	54841	139153.97406529975	10
0	54843	139160.188861305613	11
0	54845	139161.479114565411	12
0	54850	139162.13814708146	13
0	54854	139169.804878723159	12
0	54857	139170.727743051477	11
0	54860	139181.571620878353	10
0	54864	139189.453554895849	11
0	54868	139193.2442133234	10
0	54875	139206.987516055714	11
0	54876	139213.351463446783	10
0	54880	139218.669615772975	11
0	54884	139219.879706684373	10
0	54888	139229.824520952722	11
0	54890	139234.799654489477	12
0	54897	139248.591176785138	11
0	54900	139257.605064901738	10
0	54904	139264.480716565134	11
0	54906	139266.267929546577	12
0	54907	139268.968639707968	11
0	54910	139269.599643009139	10
0	54913	139271.52574188112	9
0	54916	139275.704651840475	8
0	54922	139289.524807997215	7
0	54929	139319.359316276903	8
0	54931	139329.739559031665	9
0	54932	139329.938730588981	8
0	54935	139346.76290423543	7
0	54941	139366.450891986831	6
0	54944	139368.060558777055	5
0	54948	139369.223801700099	6
0	54950	139373.982026490818	7
0	54954	139402.689957844835	6
0	54963	139420.931243903738	5
0	54967	139422.428897670766	6
0	54969	139426.459357068532	7
0	54970	139428.844490951379	6
0	54974	139441.936081374871	7
0	54975	139452.532568114392	6
0	54982	139464.92296851261	7
0	54986	139476.83743649886	6
0	54990	139483.454968988024	7
0	54991	139487.204559113596	6
0	54997	139501.050025647973	5
0	55001	139501.327435858388	6
0	55005	139524.919710309873	5
0	55012	139531.624548548824	6
0	55013	139532.324088682053	5
0	55016	139539.936466772902	4
0	55022	139555.329873222722	3
0	55029	139557.154143617141	4
0	55031	139562.326250139745	5
0	55032	139573.210572472533	4
0	55035	139576.464365893843	3
0	55038	139576.677513634783	2
0	55041	139577.98605683271	1
0	55044	139584.07069294574	0
0	55051	139602.931421416167	1
0	55062	139629.99208756078	2
0	55063	139630.527913958163	1
0	55066	139632.025311710818	0
0	55099	139690.766706786243	1
0	55104	139709.705657388262	2
0	55109	139720.551796797949	3
0	55110	139726.41897425058	2
0	55117	139733.783571909086	3
0	55119	139740.99906424339	4
0	55126	139782.903863440319	3
0	55130	139785.084081435414	4
0	55131	139785.564948111863	3
0	55134	139793.894336904353	2
0	55141	139804.937052701066	3
0	55142	139809.022445234345	2
0	55146	139815.187750553377	3
0	55147	139819.947888962597	2
0	55153	139823.428127017871	1
0	55160	139835.554432032564	2
0	55161	139840.680315291483	1
0	55165	139842.173683215653	2
0	55166	139867.55196803031	1
0	55169	139873.049674020643	0
0	55275	140060.781815598127	1
0	55277	140079.608663251472	2
0	55284	140100.371673097064	1
0	55290	140103.142118829261	0
0	55299	140126.670515195153	1
0	55300	140133.895491984835	0
0	55320	140203.205697321087	1
0	55322	140203.280730036956	2
0	55329	140210.366821032904	1
0	55333	140216.460488916865	2
0	55340	140226.190914069878	1
0	55343	140234.614538278878	0
0	55497	140670.008211078389	1
0	55498	140700.799668018593	0
0	57174	145017.502771588639	1
0	57175	145020.662683798209	0
0	57187	145047.328902331278	1
0	57194	145058.658974878882	0
0	57203	145068.438684575187	1
0	57205	145071.202879831736	2
0	57206	145087.826892613326	1
0	57212	145112.927828940072	0
0	60835	154614.238440052507	1
0	60836	154617.733422404934	0
0	61929	157443.892232771355	1
0	61933	157448.422048508618	0
0	61940	157454.761611185493	1
0	61941	157460.364798301264	0
0	61945	157476.75900724047	1
0	61947	157478.241873862873	2
0	61951	157487.90910937562	1
0	61955	157492.778273803251	2
0	61956	157497.887412836638	1
0	61959	157503.59357204066	0
0	64483	163964.633323435788	1
0	64488	164000.294121775967	2
0	64496	164031.726278587984	3
0	64498	164046.663595493011	4
0	64509	164066.217263295664	5
0	64513	164068.989346682986	4
0	64520	164073.873624750344	5
0	64526	164094.839427444884	4
0	64532	164099.702573679733	5
0	64535	164104.198684999951	6
0	64540	164108.166893259693	7
0	64543	164109.499965358885	8
0	64545	164123.795876628533	9
0	64547	164125.557532133279	10
0	64551	164137.151579924692	9
0	64555	164156.729241979142	10
0	64559	164177.259859534871	9
0	64562	164179.877421861047	8
0	64571	164194.927763494622	7
0	64577	164196.306032113096	8
0	64579	164221.058670261457	7
0	64583	164224.150841902319	8
0	64585	164228.041476747921	9
0	64586	164235.721954177772	8
0	64593	164250.789734453481	9
0	64598	164258.847448733916	10
0	64599	164259.345499881533	9
0	64603	164260.901806469407	10
0	64604	164262.975358041475	9
0	64611	164271.759311930843	10
0	64616	164275.078252944265	11
0	64618	164287.582257336098	12
0	64619	164293.485956021824	11
0	64622	164320.21879315426	10
0	64628	164341.030837409229	9
0	64631	164352.792882072926	8
0	64634	164365.1436431234	7
0	64638	164368.201276128528	8
0	64639	164369.728712550796	7
0	64649	164378.917765204259	8
0	64653	164397.946244355872	7
0	64660	164406.670455828392	8
0	64662	164410.50432632388	9
0	64669	164441.046524563477	8
0	64673	164445.805880568597	9
0	64674	164447.898319451185	8
0	64678	164451.640111043869	9
0	64680	164458.52338175913	10
0	64681	164459.606206043652	9
0	64684	164462.282951917942	8
0	64687	164474.760034519079	7
0	64690	164483.173139856231	6
0	64693	164484.057192159584	5
0	64696	164489.308110423048	4
0	64699	164496.573563967678	3
0	64709	164501.397572674423	4
0	64716	164522.189495515738	3
0	64723	164526.422726704316	4
0	64724	164526.722810187694	3
0	64727	164546.193857994649	2
0	64731	164553.400594230797	3
0	64733	164560.173236899108	4
0	64744	164592.189446320741	5
0	64748	164598.164348876388	4
0	64752	164603.22810138376	5
0	64761	164628.230256135996	6
0	64768	164648.996108939859	7
0	64771	164650.852567351299	8
0	64774	164653.886796648524	9
0	64776	164653.927335123368	8
0	64779	164657.560870885461	7
0	64782	164660.778152934896	6
0	64785	164663.389226346217	5
0	64789	164665.577183039268	6
0	64790	164669.576336670933	5
0	64797	164685.025909221068	6
0	64799	164685.781908438225	7
0	64800	164688.475567301593	6
0	64803	164695.055980719021	5
0	64806	164699.339236710479	4
0	64809	164722.139542210995	3
0	64812	164728.843808929261	2
0	64818	164741.590068432434	1
0	64821	164750.627666597295	0
0	64825	164758.67166343646	1
0	64826	164767.050123303368	0
0	64835	164789.306243560705	1
0	64836	164793.174879992467	0
0	64840	164795.106229332399	1
0	64842	164810.125927001244	2
0	64846	164829.683078044476	1
0	64849	164835.916015637884	0
0	64853	164847.797222105625	1
0	64854	164854.085483830209	0
0	66030	167789.752735620447	1
0	66031	167790.122798898283	0
0	66035	167792.549190053691	1
0	66042	167803.4271337206	0
0	66720	169322.44781411029	1
0	66721	169323.357915693878	0
0	66763	169402.829073525166	1
0	66764	169406.393970766381	0
0	66835	169577.57157534303	1
0	66839	169604.958526671243	0
0	66843	169605.134671692507	1
0	66844	169622.663465670245	0
0	66891	169675.305349046532	1
0	66892	169677.113187145821	0
0	69059	175149.646912400255	1
0	69060	175154.958737159813	0
0	71110	179865.779632611999	1
0	71112	179879.204468977673	2
0	71117	179880.620683149082	3
0	71124	179886.288910246753	2
0	71127	179887.918302725822	1
0	71131	179889.40842801586	2
0	71133	179906.839847009834	3
0	71134	179906.972122394483	2
0	71137	179921.348921480652	1
0	71140	179930.967945828254	0
0	71381	180482.05223110418	1
0	71382	180483.381501932264	0
0	71446	180650.021660777566	1
0	71447	180668.670893421562	0
0	71462	180690.09413412937	1
0	71463	180694.749332461335	0
0	73514	185408.639122638082	1
0	73517	185410.675202201537	2
0	73519	185411.910312387033	1
0	73523	185413.874167618375	2
0	73526	185414.166943269605	3
0	73528	185414.807339543895	4
0	73529	185419.881456888537	3
0	73535	185441.076895212936	2
0	73538	185450.425335752745	1
0	73542	185453.418885462076	2
0	73544	185467.373397726885	3
0	73545	185475.538326458504	2
0	73555	185478.981115212841	3
0	73563	185488.578314042693	4
0	73565	185494.729902920326	5
0	73567	185497.693310404616	6
0	73572	185516.84139287369	7
0	73574	185529.285859192065	8
0	73582	185549.377029133013	9
0	73583	185550.082532702754	8
0	73590	185560.897198937187	9
0	73592	185573.368791923065	10
0	73593	185576.452722265312	9
0	73597	185578.963418060236	10
0	73598	185591.641097383057	9
0	73607	185610.303377173407	8
0	73614	185625.3918420966	9
0	73618	185645.19436062224	8
0	73621	185645.38026553097	7
0	73628	185669.177191513676	8
0	73630	185672.759233326863	9
0	73635	185679.699988354863	10
0	73637	185687.815971009001	11
0	73638	185698.048263840061	10
0	73645	185710.895014980365	11
0	73647	185718.130582470115	12
0	73651	185738.551591575879	11
0	73654	185740.864940074841	10
0	73658	185752.125964493832	11
0	73659	185758.449454935196	10
0	73662	185761.213622145351	9
0	73669	185770.440457619769	10
0	73670	185777.976683290693	9
0	73674	185778.476670725878	10
0	73678	185791.798370941332	9
0	73684	185801.065647289323	8
0	73691	185810.885836938956	9
0	73692	185824.01595206952	8
0	73702	185834.195148634498	9
0	73704	185839.741709895599	10
0	73715	185878.773126520802	11
0	73722	185895.091091486503	10
0	73727	185905.825928092588	9
0	73731	185906.783601409093	10
0	73734	185917.225617965444	11
0	73735	185917.618235473387	10
0	73738	185918.449026619192	9
0	73742	185946.136024885122	10
0	73743	185955.345316217074	9
0	73746	185956.50826160623	8
0	73750	185970.924939492038	9
0	73751	185972.793717812728	8
0	73754	185989.574185318371	7
0	73757	185999.451815528538	6
0	73763	186008.66315050662	5
0	73767	186010.636334907889	6
0	73768	186013.025828921117	5
0	73772	186018.060930580464	6
0	73773	186018.113483045017	5
0	73776	186019.053461658685	4
0	73780	186020.915780609541	5
0	73785	186049.29010217474	6
0	73786	186056.09659146936	5
0	73789	186066.036223382623	4
0	73792	186073.039237811358	3
0	73795	186073.350721539421	2
0	73799	186074.747502452131	3
0	73803	186085.368888114211	2
0	73809	186090.519620469621	1
0	73812	186094.58135468219	0
0	73816	186109.20627484653	1
0	73820	186123.976648351824	0
0	73827	186126.748685440906	1
0	73828	186127.073756469523	0
0	73974	186461.945788071524	1
0	73979	186472.54720035545	2
0	73986	186489.92176469866	1
0	73989	186494.526077166634	0
0	74009	186528.185579301188	1
0	74011	186528.217114665493	2
0	74016	186542.454941359242	3
0	74017	186544.755668218467	2
0	74020	186547.293362696113	1
0	74024	186550.593799580058	2
0	74025	186557.480157362964	1
0	74029	186589.230320817214	2
0	74033	186595.078007849033	1
0	74040	186599.302506170706	2
0	74041	186604.664115692166	1
0	74044	186612.687024968373	0
0	74048	186615.120661144307	1
0	74052	186620.642493523373	0
0	74478	187654.96730773647	1
0	74486	187664.964151547925	2
0	74487	187671.121437501484	1
0	74490	187678.214841792832	0
0	74494	187678.355173532056	1
0	74496	187699.5673154198	2
0	74497	187708.038655515369	1
0	74500	187715.514358839589	0
0	74896	188576.672432167661	1
0	74899	188584.537104607324	2
0	74902	188590.283996822458	3
0	74904	188598.153000597801	4
0	74905	188599.766935091086	3
0	74911	188607.79331936467	2
0	74914	188609.213117893859	1
0	74917	188620.68041844048	0
0	77072	193950.798469994171	1
0	77073	193951.877489710201	0
0	77080	193959.531469502483	1
0	77082	193963.701644615238	2
0	77083	193979.434233977307	1
0	77092	193994.296868420151	0
0	77110	194036.039680952566	1
0	77111	194042.427321368675	0
0	77115	194043.995311130726	1
0	77117	194048.326511815223	2
0	77118	194054.91655315915	1
0	77121	194056.256904743002	0
0	77161	194138.145362657301	1
0	77163	194138.533715526473	2
0	77174	194147.928564989463	3
0	77179	194151.06283773168	4
0	77181	194156.902265199067	5
0	77183	194159.07466520588	6
0	77188	194166.791496384714	7
0	77189	194168.234069463034	6
0	77193	194170.259687407436	7
0	77195	194170.260724406972	8
0	77200	194188.81050941598	9
0	77204	194203.773381008845	8
0	77207	194213.931565808996	7
0	77210	194214.632182185417	6
0	77219	194227.719536601408	5
0	77228	194234.597562991982	4
0	77233	194244.351904930906	3
0	77245	194254.000002782061	4
0	77248	194261.445081977749	5
0	77251	194262.521753488395	6
0	77254	194275.00835295635	7
0	77257	194279.74871917449	8
0	77260	194283.746549809328	9
0	77261	194285.324734218035	8
0	77264	194295.690470457629	7
0	77267	194300.327213179108	6
0	77276	194314.104377130551	7
0	77279	194314.164726916578	8
0	77281	194321.238964332162	9
0	77289	194335.978666990498	10
0	77293	194360.042067921103	9
0	77298	194375.548939328782	8
0	77301	194375.795831951085	7
0	77307	194383.626357819391	8
0	77313	194394.854092317747	7
0	77317	194401.785545436795	8
0	77321	194402.973620822664	7
0	77325	194404.316663819202	8
0	77327	194409.544005596492	7
0	77331	194433.198564654256	8
0	77333	194434.593867552504	7
0	77336	194435.141572139301	6
0	77339	194444.176937363336	5
0	77343	194447.443187453049	6
0	77346	194449.716840646873	7
0	77347	194451.753141562745	6
0	77356	194467.457363708116	7
0	77358	194468.174875742413	6
0	77361	194471.379695494176	5
0	77365	194471.406247091874	6
0	77369	194483.380706824065	5
0	77373	194484.400381772277	6
0	77375	194488.889751850115	7
0	77376	194491.61714294768	6
0	77380	194505.64098479402	7
0	77381	194513.80034026059	6
0	77390	194522.614724742321	5
0	77399	194536.718731521455	6
0	77404	194566.139995366959	7
0	77406	194567.156629114375	6
0	77410	194573.74258452058	7
0	77412	194578.555978420075	8
0	77413	194597.283994520857	7
0	77420	194600.943813426833	8
0	77422	194609.804348090343	9
0	77433	194626.653744748296	10
0	77434	194627.74474988005	9
0	77438	194628.164114533212	10
0	77442	194643.738437071304	9
0	77445	194656.203659118414	8
0	77452	194661.80266544973	9
0	77458	194670.013721596961	8
0	77461	194670.611541478023	7
0	77468	194674.630599339209	6
0	77474	194685.001638775399	7
0	77477	194686.554996186992	8
0	77482	194696.678889702297	9
0	77484	194698.386144492945	8
0	77488	194703.812493606988	9
0	77491	194707.769602143875	10
0	77494	194708.039563408972	11
0	77496	194714.932385628047	12
0	77498	194716.83645505651	13
0	77500	194720.098878038912	14
0	77505	194735.077423594175	15
0	77506	194744.602565456765	14
0	77510	194748.429767108266	15
0	77511	194748.589880787057	14
0	77520	194767.010160524691	13
0	77526	194773.659222168901	12
0	77536	194796.651729009291	13
0	77538	194797.078614099239	14
0	77539	194806.156094721252	13
0	77542	194806.53935555736	12
0	77545	194813.65491030376	11
0	77549	194815.11345963759	12
0	77551	194815.446428541187	13
0	77552	194819.844218495017	12
0	77567	194826.806563853352	11
0	77571	194831.542611988268	12
0	77573	194832.661218055526	13
0	77575	194836.755094848257	14
0	77576	194839.846045603307	13
0	77580	194842.167444454278	14
0	77581	194851.26379891428	13
0	77584	194852.583379909382	12
0	77588	194852.785706201089	13
0	77589	194868.023908176022	12
0	77593	194873.679531927449	13
0	77597	194902.882985863937	12
0	77600	194905.851723729461	11
0	77603	194923.06699650773	10
0	77612	194936.771905241477	9
0	77624	194959.343299005095	8
0	77628	194964.028454365484	9
0	77630	194964.795136274288	10
0	77631	194964.844658636663	9
0	77641	194976.370516393354	10
0	77642	194990.428579961379	9
0	77646	195000.819941433329	10
0	77647	195008.260984539486	9
0	77654	195011.177708387636	10
0	77659	195020.244839791239	11
0	77660	195022.26453498752	10
0	77666	195034.868443703744	9
0	77672	195041.631100426939	8
0	77677	195051.600979766584	7
0	77680	195051.75737354351	6
0	77686	195081.089089375518	7
0	77689	195081.835894790739	8
0	77692	195083.060507144746	9
0	77694	195084.566688164074	10
0	77696	195089.831449334107	11
0	77704	195109.819718281122	12
0	77705	195113.47168726578	11
0	77709	195114.544525645243	12
0	77710	195114.550748549817	11
0	77716	195122.447821004128	10
0	77723	195133.556379741274	11
0	77724	195137.095346770882	10
0	77731	195140.22361171027	11
0	77733	195154.60028493078	12
0	77735	195155.404618852917	13
0	77742	195172.139308020865	12
0	77746	195172.716929847349	13
0	77747	195182.865090304632	12
0	77753	195188.922826047804	11
0	77757	195198.982852507123	12
0	77759	195210.145234965815	13
0	77767	195228.461223844338	14
0	77768	195230.4565437274	13
0	77771	195259.164457621682	12
0	77786	195267.162443021277	13
0	77788	195271.463936865435	12
0	77795	195291.263727465338	11
0	77799	195304.241465710941	12
0	77801	195305.937849171662	11
0	77808	195324.347156735704	10
0	77812	195324.812435278829	11
0	77815	195325.567341581787	12
0	77818	195327.927217426221	13
0	77821	195328.448550086771	14
0	77823	195329.143458545289	15
0	77824	195350.037960540061	14
0	77827	195358.426852716443	13
0	77831	195361.241398625866	14
0	77833	195364.106850188807	15
0	77837	195375.931497736154	14
0	77841	195403.486101809357	15
0	77843	195406.511059758508	16
0	77844	195416.606754022314	15
0	77847	195427.498781844852	14
0	77850	195442.176996356849	13
0	77853	195455.222375818097	12
0	77863	195473.049313950167	13
0	77864	195487.973252106665	12
0	77867	195489.914385021688	11
0	77870	195491.851797219374	10
0	77873	195491.940661607573	9
0	77880	195498.460849944092	10
0	77884	195513.58567414232	9
0	77890	195528.954493554931	8
0	77899	195550.643803063454	7
0	77905	195562.535397560357	8
0	77907	195566.144227671291	7
0	77911	195566.331525286273	8
0	77913	195568.385411497622	9
0	77915	195568.913986988722	10
0	77920	195576.720859210098	11
0	77921	195583.804713502186	10
0	77925	195593.406812412569	11
0	77929	195600.304647728409	10
0	77932	195602.075920466177	9
0	77935	195608.68928337192	8
0	77938	195610.584385825436	7
0	77941	195611.116665921815	6
0	77948	195618.679062952658	7
0	77955	195640.222295017338	6
0	77962	195643.803813736084	7
0	77966	195650.397627905299	6
0	77969	195653.107939026036	5
0	77975	195657.590967940618	6
0	77980	195683.715743123944	7
0	77982	195683.824260902346	6
0	77985	195685.725597753115	5
0	77990	195695.899457231203	4
0	77994	195698.770689212582	5
0	77996	195703.490272318442	4
0	78001	195712.974551207354	3
0	78005	195718.69439093391	4
0	78007	195720.208278546003	3
0	78012	195722.523997914078	2
0	78016	195722.946818621311	3
0	78019	195724.604030318967	4
0	78021	195724.785670729985	5
0	78022	195725.864193813637	4
0	78034	195741.041115154561	5
0	78037	195741.585555824237	6
0	78039	195745.572289984855	7
0	78043	195750.540635830275	6
0	78046	195750.694662107861	5
0	78050	195758.193368428201	6
0	78051	195765.997091549379	5
0	78055	195780.751293881097	6
0	78059	195790.794027289233	5
0	78063	195792.397555417244	6
0	78068	195797.589587718328	7
0	78070	195804.467383585891	8
0	78078	195829.093649878642	9
0	78080	195834.969513313741	10
0	78082	195835.656707145458	11
0	78084	195840.535315449317	12
0	78085	195856.779392371328	11
0	78094	195875.423324432899	10
0	78098	195877.216398940831	11
0	78106	195907.311366875234	12
0	78111	195914.753787256948	13
0	78112	195933.19457702923	12
0	78115	195934.375625612701	11
0	78119	195941.52549423444	12
0	78123	195948.782820796117	11
0	78129	195958.067816774347	10
0	78135	195980.125389050571	9
0	78139	195982.099410365165	10
0	78140	195989.316935431455	9
0	78146	195991.438402067474	8
0	78149	195993.678849830965	7
0	78152	195995.955116642067	6
0	78156	195998.920130247608	7
0	78157	196001.154547484874	6
0	78161	196012.608410999579	7
0	78162	196013.414324554622	6
0	78165	196013.911237721869	5
0	78169	196015.172074564089	6
0	78177	196027.445592550431	7
0	78181	196053.062604297295	6
0	78184	196055.655596673721	5
0	78188	196057.762785844021	6
0	78192	196078.600589877976	5
0	78195	196086.575655015799	4
0	78199	196096.335373622933	5
0	78200	196112.467766134427	4
0	78203	196125.431247519288	3
0	78206	196146.012008313704	2
0	78209	196171.437009885693	1
0	78212	196178.578227125276	0
0	78632	197209.160620010463	1
0	78633	197210.017708535189	0
0	79054	198166.964169167633	1
0	79059	198192.85168163366	2
0	79060	198206.920704831939	1
0	79064	198216.412919453828	2
0	79066	198216.511127015196	3
0	79067	198225.491040240785	2
0	79070	198226.889500067678	1
0	79073	198229.453924859403	0
0	79160	198388.44529482635	1
0	79161	198395.306936183023	0
0	79176	198446.085622193306	1
0	79177	198450.329288332551	0
0	79553	199360.312065691532	1
0	79555	199364.233811363585	2
0	79557	199388.740851646475	3
0	79558	199398.918022793591	2
0	79564	199408.382356183646	1
0	79568	199417.2047515003	2
0	79570	199424.123851502448	3
0	79575	199441.690418761294	4
0	79576	199442.89292750038	3
0	79579	199448.603479007515	2
0	79586	199453.450520291717	3
0	79597	199472.367538750293	4
0	79599	199477.546807180477	5
0	79607	199514.502466642828	6
0	79608	199519.257167620655	5
0	79615	199524.024060968142	6
0	79616	199527.234240069711	5
0	79619	199530.668679198535	4
0	79622	199544.870521691767	3
0	79625	199550.776924129028	2
0	79628	199554.459849999839	1
0	79632	199556.793894465683	2
0	79634	199571.569500443082	3
0	79635	199595.825134331381	2
0	79638	199606.386694687524	1
0	79647	199624.796580849917	0
0	79651	199632.210171118467	1
0	79653	199657.248936078255	2
0	79657	199710.004168913574	1
0	79661	199714.567607552968	2
0	79662	199760.905516512328	1
0	79668	199774.849409953752	0
0	79672	199800.968274913662	1
0	79673	199821.335287994745	0
0	79680	199844.809963645626	1
0	79685	199865.56871082267	2
0	79687	199868.103406447347	3
0	79688	199869.522383159455	2
0	79697	199883.378056666929	1
0	79701	199895.634408639693	2
0	79703	199897.171067528459	3
0	79710	199919.381237913539	2
0	79716	199922.909771871876	1
0	79722	199941.158705550946	0
0	79731	199965.605014063341	1
0	79735	199982.901511406964	0
0	79750	200028.3790354769	1
0	79751	200032.859132757637	0
0	79771	200090.325105182335	1
0	79772	200090.660466137261	0
0	79816	200223.382548505756	1
0	79818	200225.324430885132	2
0	79819	200234.008480461273	1
0	79822	200236.454311938793	0
0	79870	200332.557416473194	1
0	79875	200338.914211644482	2
0	79880	200347.315064072578	3
0	79882	200357.990277833027	4
0	79884	200359.14580997842	5
0	79885	200364.813252909267	4
0	79898	200380.689727376313	5
0	79899	200395.428580540526	4
0	79902	200402.535337924325	3
0	79906	200404.902065744394	4
0	79910	200416.63362699889	3
0	79913	200424.487088333632	2
0	79917	200461.224650681367	3
0	79918	200467.659731987984	2
0	79921	200478.726759060327	1
0	79928	200484.213127076815	2
0	79929	200496.621482756892	1
0	79933	200505.65881070421	2
0	79934	200506.762825026467	1
0	79937	200535.113681816432	0
0	79941	200548.681075218176	1
0	79946	200559.454001708153	2
0	79947	200560.413422683152	1
0	79950	200561.353796075821	0
0	80276	201324.75048207654	1
0	80277	201329.267307107398	0
0	80281	201334.894295271153	1
0	80282	201336.116599731471	0
0	80289	201340.293970268696	1
0	80290	201344.685461761535	0
0	80758	202522.40487695817	1
0	80761	202531.000884167212	2
0	80762	202533.887219082924	1
0	80765	202544.567546494662	0
0	80840	202708.069738381773	1
0	80843	202716.549393138648	2
0	80846	202727.73928728407	3
0	80847	202729.796814386014	2
0	80850	202733.126062566693	1
0	80858	202749.783813706609	0
0	80862	202758.709163895624	1
0	80864	202760.04392686293	0
0	80921	202856.411706953231	1
0	80922	202865.382137737812	0
0	80926	202875.591526442106	1
0	80928	202876.118934497779	2
0	80929	202887.147665640406	1
0	80935	202903.258368323907	0
0	81043	203128.025775630432	1
0	81045	203131.916413195364	2
0	81046	203132.142686296855	1
0	81049	203135.051637776579	0
0	81053	203146.384144886916	1
0	81054	203148.420917212784	0
0	81157	203485.462624093705	1
0	81158	203501.538149902349	0
0	81947	205554.633211737625	1
0	81949	205555.13956308123	2
0	81950	205557.297813676062	1
0	81957	205568.028072402193	2
0	81958	205571.974517230481	1
0	81964	205581.945107321913	0
0	81998	205643.285371026056	1
0	82006	205668.480370452961	2
0	82007	205669.108745354159	1
0	82011	205669.938131248887	2
0	82013	205675.756442030476	3
0	82015	205677.645280634723	4
0	82025	205697.977686677047	3
0	82029	205701.887817073919	4
0	82031	205711.738885458362	5
0	82032	205720.992156427118	4
0	82035	205730.465525939262	3
0	82039	205733.612504645853	4
0	82040	205741.079905935124	3
0	82043	205756.077190604469	2
0	82049	205772.658951269175	1
0	82052	205773.1491236676	0
0	82056	205793.69934204259	1
0	82060	205801.55212115261	0
0	82078	205840.659022475849	1
0	82079	205840.842272800288	0
0	82083	205844.788220948674	1
0	82085	205845.324665168117	2
0	82092	205868.266518877207	1
0	82096	205882.693842667599	2
0	82098	205900.572215918008	3
0	82099	205907.621107944021	2
0	82106	205925.869189985157	3
0	82107	205935.240566187692	2
0	82110	205937.434422563862	1
0	82113	205955.606968577329	0
0	85518	214088.448614895865	1
0	85521	214096.303838532089	2
0	85523	214098.628666989668	3
0	85525	214105.041982943574	4
0	85529	214115.234721926386	3
0	85532	214117.090124752726	2
0	85536	214138.712826726499	3
0	85538	214140.571912466779	4
0	85542	214145.930989377396	3
0	85552	214155.965573039728	4
0	85553	214157.950044533155	3
0	85557	214166.468263442195	4
0	85558	214167.119822847186	3
0	85562	214169.167114360667	4
0	85563	214176.424164073662	3
0	85566	214191.292498956706	2
0	85573	214207.550993377908	3
0	85574	214212.614277901623	2
0	85577	214222.053497584067	1
0	85587	214254.91441715852	2
0	85592	214266.76552330629	3
0	85594	214270.927428684493	4
0	85595	214271.900611653722	3
0	85598	214294.689786381896	2
0	85601	214298.837655618998	1
0	85604	214307.253542905211	0
0	85614	214318.314096882695	1
0	85616	214329.907256278545	2
0	85617	214335.888517137107	1
0	85620	214352.292373144116	0
0	85627	214372.396652094278	1
0	85629	214378.027803369546	2
0	85631	214380.946924218478	3
0	85632	214384.198949110541	2
0	85635	214389.407145956711	1
0	85638	214395.362120200226	0
0	85707	214576.470820943796	1
0	85708	214597.172669064731	0
0	85712	214598.773568934934	1
0	85717	214607.359908368927	2
0	85718	214619.174577138186	1
0	85725	214626.214488125463	2
0	85726	214626.578781785746	1
0	85730	214652.664208377382	2
0	85731	214702.408358316521	1
0	85737	214707.808850397192	0
0	85766	214731.841301034687	1
0	85774	214750.001979721709	2
0	85779	214754.415303226575	3
0	85781	214756.862297813788	4
0	85783	214760.063267400562	5
0	85784	214764.107374216279	4
0	85788	214765.08228419053	5
0	85789	214772.050896929742	4
0	85795	214800.044319975791	3
0	85798	214805.298767362121	2
0	85807	214834.227673335093	1
0	85810	214846.055683855356	0
0	85814	214849.032462453998	1
0	85816	214860.622644954073	2
0	85820	214867.646299087549	1
0	85824	214876.609993136097	2
0	85825	214891.924589225512	1
0	85831	214915.826229862939	0
0	85891	215093.601118500666	1
0	85895	215115.638510539951	0
0	86304	216150.408001919228	1
0	86306	216153.474862307905	2
0	86307	216168.50358631459	1
0	86310	216199.560459223524	0
0	86542	216666.46208578325	1
0	86543	216667.88629795641	0
0	86724	217020.615069039873	1
0	86725	217022.685807356042	0
0	86732	217037.790590763889	1
0	86736	217045.242905281743	0
0	86740	217065.559938549949	1
0	86741	217072.633590834204	0
0	86745	217074.638529838816	1
0	86747	217075.527546745908	2
0	86749	217077.163475404523	3
0	86753	217084.490304275898	2
0	86757	217093.564016644738	3
0	86768	217115.560133376693	4
0	86770	217118.380758699193	5
0	86774	217123.207505819758	4
0	86777	217130.358099685715	3
0	86780	217133.396590817384	2
0	86787	217144.124063073007	3
0	86792	217160.952035139886	4
0	86794	217162.591086607239	5
0	86795	217170.434924247081	4
0	86801	217173.652640423215	3
0	86805	217182.204150164314	4
0	86807	217182.747901190725	5
0	86808	217187.60037967039	4
0	86811	217188.198792346863	3
0	86818	217212.167283379108	4
0	86819	217218.822824697939	3
0	86822	217231.556479700818	2
0	86825	217235.711428770459	1
0	86829	217240.445938304947	2
0	86836	217329.24875579607	1
0	86839	217356.564834502207	0
0	86846	217375.355498641638	1
0	86853	217385.594588604687	0
0	86862	217390.182265074684	1
0	86864	217391.132189772218	0
0	86873	217412.55264584998	1
0	86877	217417.422551716247	0
0	86881	217427.263366543086	1
0	86883	217428.351796566626	2
0	86885	217428.853108971284	3
0	86886	217430.013060315462	2
0	86890	217431.904208548888	3
0	86891	217435.178565456267	2
0	86894	217441.018002400503	1
0	86907	217483.873932327985	2
0	86909	217485.837187960474	3
0	86913	217490.670238470251	2
0	86926	217496.130028961847	3
0	86927	217503.740776595097	2
0	86931	217516.731216568005	3
0	86932	217530.685978946338	2
0	86936	217533.611109985999	3
0	86944	217549.667264477848	4
0	86945	217551.879813779445	3
0	86952	217557.967224249359	4
0	86957	217563.571610065943	5
0	86958	217569.149288237614	4
0	86962	217571.790567888736	5
0	86963	217575.149221016874	4
0	86966	217577.091532595157	3
0	86969	217586.883062369255	2
0	86975	217597.36834939715	1
0	86979	217610.408334501346	2
0	86981	217613.533198254684	3
0	86982	217625.781410745009	2
0	86989	217630.409715936422	3
0	86990	217635.624255021387	2
0	86994	217637.398490507184	3
0	86996	217649.458260479491	4
0	86997	217661.397297980864	3
0	87004	217679.477655507649	4
0	87014	217693.978299543944	3
0	87017	217695.933734772123	2
0	87020	217700.037767578741	1
0	87026	217709.399897131589	0
0	87070	217850.051636949725	1
0	87072	217851.780143918101	2
0	87077	217860.582605168378	3
0	87078	217869.084519812108	2
0	87081	217878.156806978155	1
0	87091	217889.632493455598	2
0	87096	217917.115504669889	3
0	87101	217928.248301918871	4
0	87106	217929.523513773243	5
0	87108	217946.469377221759	6
0	87112	217947.421605852964	5
0	87118	217971.644433752363	4
0	87128	218010.381017797587	5
0	87130	218012.994337602565	6
0	87131	218013.955519996242	5
0	87143	218017.647089704954	6
0	87146	218023.614722545955	7
0	87147	218028.752036246038	6
0	87151	218029.047600121359	7
0	87152	218031.152333005855	6
0	87156	218032.633121925908	7
0	87157	218037.139493849496	6
0	87167	218044.725181285629	7
0	87171	218053.537079180592	6
0	87174	218055.525961138081	5
0	87178	218056.32917122279	6
0	87180	218058.324306342322	7
0	87182	218065.066759265625	8
0	87183	218065.830302530741	7
0	87187	218071.826452730601	8
0	87191	218078.062311931688	7
0	87195	218083.319228417962	8
0	87196	218094.743954262485	7
0	87200	218108.341651574335	8
0	87201	218112.686667523849	7
0	87208	218116.15687769472	8
0	87212	218136.898174359967	7
0	87216	218143.573590090059	8
0	87217	218145.732270166619	7
0	87220	218158.113430888142	6
0	87223	218158.215684588638	5
0	87226	218161.005253264634	4
0	87232	218174.970581294251	3
0	87244	218214.350449069621	2
0	87253	218237.994047845227	1
0	87258	218252.636867171046	0
0	87302	218358.587615016905	1
0	87314	218402.480912143956	0
0	87318	218405.548213061879	1
0	87321	218413.931953373082	2
0	87323	218416.144435410206	3
0	87325	218420.648813098053	4
0	87327	218440.25075575119	5
0	87329	218466.56955854314	6
0	87330	218508.335087120497	5
0	87339	218523.413190981571	4
0	87342	218524.004402863141	3
0	87346	218532.56769804611	4
0	87347	218538.566314932105	3
0	87353	218551.242371459251	2
0	87357	218557.305676631814	3
0	87362	218561.236281455075	4
0	87369	218571.669428195269	3
0	87376	218579.668336664035	4
0	87377	218586.052655166427	3
0	87380	218586.070983594985	2
0	87384	218588.834762416244	3
0	87386	218589.373451880691	4
0	87387	218590.843329923019	3
0	87390	218591.257776690442	2
0	87394	218597.23143344984	3
0	87395	218597.628523106212	2
0	87398	218602.322520334758	1
0	87402	218604.5059564207	2
0	87407	218610.661235841082	3
0	87412	218626.956270613962	4
0	87413	218627.470194441002	3
0	87420	218629.124424148762	4
0	87428	218650.242487261581	5
0	87429	218657.705176161054	4
0	87436	218671.023777739011	5
0	87440	218706.913702512483	4
0	87443	218714.491902545503	3
0	87450	218749.821791784543	4
0	87452	218749.997004758314	5
0	87456	218772.559293140652	4
0	87460	218773.2775354058	5
0	87467	218789.792838606917	4
0	87474	218809.071159597166	5
0	87476	218822.644484097783	6
0	87477	218838.006370324334	5
0	87490	218853.658235314175	6
0	87495	218864.952757937295	7
0	87496	218869.134590481499	6
0	87500	218876.675761179989	7
0	87501	218877.965862643118	6
0	87505	218898.287092667613	7
0	87510	218931.441923977581	8
0	87511	218935.699246557608	7
0	87514	218943.964770365366	6
0	87517	218949.165931852963	5
0	87521	218951.36192042022	6
0	87525	218955.996331239281	5
0	87532	218967.157717698471	6
0	87534	218967.845390365695	7
0	87535	218969.968260659641	6
0	87542	218979.468472442268	7
0	87543	218981.33472954427	6
0	87546	218996.396852298091	5
0	87564	219039.893168415474	4
0	87568	219043.756379547281	5
0	87570	219045.078092736009	6
0	87571	219060.420912314896	5
0	87574	219060.871732086617	4
0	87578	219069.279952463085	5
0	87580	219070.579508026737	6
0	87584	219080.406267935351	5
0	87587	219081.822560762987	4
0	87590	219083.355112351449	3
0	87599	219099.589482958869	2
0	87606	219103.479958238126	3
0	87607	219103.840228010271	2
0	87610	219106.460075501148	1
0	87613	219108.149642556992	0
0	87617	219109.512704168072	1
0	87622	219125.325217506962	2
0	87624	219141.355728813479	3
0	87632	219147.713781887812	4
0	87634	219157.609116313476	5
0	87635	219158.539789584875	4
0	87638	219160.311610392856	3
0	87642	219169.433700862978	4
0	87643	219174.415074530935	3
0	87647	219181.254295681004	4
0	87649	219191.294930316606	5
0	87653	219206.083114295223	4
0	87656	219206.538278092231	3
0	87659	219213.366012337394	2
0	87663	219233.126882562021	3
0	87664	219235.247834742557	2
0	87667	219258.550636162931	1
0	87673	219263.344295160579	0
0	89248	223062.832175121746	1
0	89253	223067.837843888397	2
0	89258	223086.298442869675	3
0	89261	223086.740768056216	4
0	89264	223088.928086055008	5
0	89265	223092.738005442333	4
0	89269	223095.569689289015	5
0	89270	223106.750331912536	4
0	89286	223127.42148629519	5
0	89288	223128.143157108248	4
0	89294	223145.657305670132	5
0	89297	223148.529150359962	6
0	89302	223155.429880145863	7
0	89305	223155.471125562529	8
0	89307	223156.468125779456	7
0	89311	223157.891922390318	8
0	89313	223160.437548871434	9
0	89315	223166.247901273089	10
0	89316	223203.808739970433	9
0	89320	223209.989032229426	10
0	89327	223237.756622601991	9
0	89331	223244.032929123232	10
0	89343	223259.538786865822	9
0	89353	223272.894998807025	10
0	89356	223276.284797741754	11
0	89358	223280.374272858551	10
0	89364	223292.509672655532	11
0	89369	223306.389598585025	12
0	89371	223311.634701579121	11
0	89375	223311.834516360228	12
0	89378	223335.338234241913	13
0	89380	223336.456582237375	12
0	89383	223337.756024825389	11
0	89386	223339.12610044431	10
0	89394	223354.75676020287	11
0	89396	223359.992417046715	10
0	89399	223362.903906700746	9
0	89405	223373.496635156919	10
0	89408	223376.384690061014	11
0	89414	223386.761264956494	10
0	89417	223391.082494040885	9
0	89421	223394.281781534107	10
0	89423	223395.465888029921	9
0	89427	223396.379386599124	10
0	89430	223401.666090616256	11
0	89431	223409.589898399534	10
0	89435	223423.380379708552	11
0	89436	223427.880530973466	10
0	89443	223432.367310535357	11
0	89444	223438.952718414655	10
0	89447	223442.742020774604	9
0	89453	223448.672747032329	8
0	89457	223449.095279758067	9
0	89459	223470.229979362316	10
0	89461	223473.760611477897	11
0	89463	223476.237487002445	12
0	89464	223478.172258492989	11
0	89471	223506.071176218249	12
0	89472	223519.125474921479	11
0	89478	223525.691746212303	10
0	89482	223526.139334359286	11
0	89487	223546.277358977655	12
0	89491	223562.829264408736	11
0	89494	223577.811801123276	10
0	89501	223584.827576389686	11
0	89505	223605.796090375876	10
0	89508	223607.286726084555	9
0	89512	223612.010864731806	10
0	89514	223614.411960494512	11
0	89515	223626.397099816606	10
0	89518	223628.992305418005	9
0	89525	223639.070504907209	10
0	89533	223658.831425153638	11
0	89535	223665.28077193564	12
0	89536	223665.71536392332	11
0	89542	223670.358510417537	10
0	89545	223676.478307033757	9
0	89549	223677.07932687882	10
0	89560	223733.782230634664	11
0	89562	223734.696593048065	12
0	89567	223743.159692697077	13
0	89571	223781.07300798838	12
0	89577	223785.224805140935	11
0	89580	223788.040027545553	10
0	89584	223788.758364084646	11
0	89585	223790.502680169468	10
0	89592	223796.764635636931	11
0	89594	223816.79361978186	12
0	89596	223823.31417897362	13
0	89600	223837.437555778511	12
0	89610	223852.991544317629	13
0	89618	223869.188820975202	14
0	89620	223873.161563941208	15
0	89621	223877.291766063873	14
0	89624	223878.291568722311	13
0	89628	223878.855780612254	14
0	89629	223886.65388498603	13
0	89633	223901.632156504444	14
0	89635	223910.915531895384	15
0	89636	223915.074128136579	14
0	89646	223944.221015190385	15
0	89653	223965.093670834671	14
0	89656	223972.664744076948	13
0	89659	223990.386206284301	12
0	89666	223998.032911949668	13
0	89668	224000.415949418374	14
0	89673	224016.875557276563	15
0	89675	224030.66765929836	16
0	89679	224040.136738371251	15
0	89682	224042.902634829853	14
0	89686	224058.556174861041	15
0	89690	224073.519126096297	14
0	89696	224084.614326230723	13
0	89700	224090.88720282923	14
0	89702	224102.036149347487	15
0	89707	224128.327455085197	16
0	89708	224131.734656952839	15
0	89711	224155.2078651775	14
0	89714	224164.919783237564	13
0	89718	224165.811200712181	14
0	89719	224187.355389404161	13
0	89728	224201.854726667533	12
0	89743	224236.127575436087	11
0	89747	224251.282167280818	12
0	89748	224251.66912669387	11
0	89751	224262.885664887929	10
0	89754	224264.912761916304	9
0	89758	224267.445970615387	10
0	89760	224269.635210035674	11
0	89771	224300.712262886153	12
0	89773	224301.584421380467	13
0	89775	224303.32701515366	14
0	89776	224312.488857122425	13
0	89783	224322.999873800177	14
0	89788	224341.866688698488	15
0	89790	224344.092256116689	16
0	89791	224350.713053760868	15
0	89801	224365.571505760757	16
0	89803	224377.064060962334	17
0	89805	224379.602129381818	18
0	89806	224385.139930087432	17
0	89812	224391.406912990754	16
0	89815	224398.919938277483	15
0	89818	224415.228910258961	14
0	89821	224421.031419499741	13
0	89824	224431.10012261578	12
0	89831	224451.928117182507	13
0	89832	224454.499356430428	12
0	89839	224477.333126844374	13
0	89840	224484.002126539085	12
0	89844	224492.3395301414	13
0	89845	224495.125891511692	12
0	89848	224498.075988773181	11
0	89851	224509.45481356517	10
0	89854	224512.806896537203	9
0	89858	224519.928633147358	10
0	89859	224520.131654763717	9
0	89866	224532.181774929702	10
0	89874	224556.842466457049	11
0	89878	224574.042290527396	10
0	89885	224578.604340811463	11
0	89886	224582.852785538215	10
0	89889	224594.066214864442	9
0	89896	224595.51286267057	10
0	89898	224601.013308355521	11
0	89899	224602.57956348622	10
0	89902	224603.565589254237	9
0	89908	224642.009543268994	8
0	89911	224649.754738859189	7
0	89914	224664.608722602398	6
0	89920	224673.98896783615	5
0	89924	224679.661046825016	6
0	89926	224681.412144444903	7
0	89927	224704.011652944308	6
0	89930	224710.31323077753	5
0	89933	224713.991242918736	4
0	89936	224723.752538217273	3
0	89939	224729.248428351566	2
0	89942	224751.142922434178	1
0	89946	224751.515814917099	2
0	89950	224757.898871275546	1
0	89953	224768.400404975322	0
0	89980	224834.126337695403	1
0	89984	224849.530413496094	0
0	90006	224867.655910665441	1
0	90009	224882.128106954204	2
0	90014	224886.187950185519	3
0	90021	224921.513934211714	4
0	90023	224926.540189106696	3
0	90030	224950.664612419857	2
0	90033	224951.308461499762	1
0	90036	224956.948933378805	0
0	90040	224968.572593218886	1
0	90043	224968.590283421164	2
0	90045	224981.852631647005	1
0	90049	224983.976893056742	2
0	90050	224992.664443233376	1
0	90053	224995.302071363999	0
0	90057	225003.861735874328	1
0	90058	225007.255281969766	0
0	90078	225054.103218260935	1
0	90079	225054.402431216209	0
0	90083	225058.633702531034	1
0	90088	225059.04616253145	2
0	90104	225088.427726898292	3
0	90107	225089.797974994179	4
0	90108	225100.242941170573	3
0	90112	225108.010363667414	4
0	90117	225123.25015630927	5
0	90119	225130.728551811251	6
0	90121	225136.25791098674	7
0	90122	225159.464717271878	6
0	90128	225171.367468231407	5
0	90132	225172.274605324828	6
0	90136	225183.887213096111	5
0	90139	225186.788969118067	4
0	90142	225187.112956633423	3
0	90146	225188.375533783339	4
0	90148	225197.15082796001	5
0	90149	225201.497549915144	4
0	90152	225205.304750390759	3
0	90155	225212.731329793641	2
0	90158	225214.370034940621	1
0	90161	225214.743565718778	0
0	90168	225220.490518313329	1
0	90173	225237.956703191948	2
0	90177	225255.04204113584	1
0	90181	225259.114062760949	2
0	90182	225259.398856490199	1
0	90188	225303.943982570735	0
0	90200	225329.617191657073	1
0	90201	225341.988850813454	0
0	90398	225801.63759820485	1
0	90402	225811.090034763728	0
0	90409	225823.881091148995	1
0	90414	225832.333360431644	2
0	90416	225833.095649211767	3
0	90418	225838.235775332029	4
0	90420	225839.751408584211	5
0	90421	225855.768589781093	4
0	90425	225865.580713984019	5
0	90426	225879.966232495929	4
0	90439	225910.061401863673	5
0	90440	225912.107447200023	4
0	90447	225926.070460339117	5
0	90451	225934.2350034437	4
0	90454	225936.144649128835	3
0	90457	225938.077978394019	2
0	90461	225949.788671958372	3
0	90466	225951.815543548045	4
0	90468	225951.869389057072	5
[...]
2	237724	597051.635177828958	1004.580049396
2	237735	597086.092851959321	1664.4532171563
2	237743	597107.552252358402	569.56769668423
2	237760	597152.369907597161	1153.1888136098
2	237768	597164.641632085752	1252.1954420153
2	237770	597168.8889065627	325.08214946778
2	237778	597181.006554912164	1449.0029248175
2	237801	597257.126129942363	1236.5619920272
2	237803	597258.133420169746	557.92414260462
2	237817	597287.511968590441	861.07519937002
2	237825	597304.48484512678	1816.7223013415
2	237827	597312.665932226301	900.80628589329
2	237859	597367.08329357502	1886.9773351604
2	237879	597412.764464812461	587.48892762153
2	237884	597416.159276646197	797.39205175608
2	237898	597466.964649754878	204.12533211594
2	237936	597529.678148848148	96.567822734416
2	237947	597543.729796419587	1091.3435425817
2	237949	597548.246398993937	135.72981807646
2	237954	597571.984766380456	188.02560617047
2	237956	597573.632590952361	826.563405215
2	237967	597645.723210877884	284.37130159153
2	237969	597657.646770248487	246.15881261971
2	237974	597664.220430655445	918.75958767433
2	237976	597664.452911982875	346.30368109095
2	237987	597692.666643644015	1063.8839123777
2	237995	597732.29259659229	1462.2850823619
2	238000	597736.288540673989	258.76773467121
2	238002	597737.839078276111	1987.2098597126
2	238020	597799.568155641217	1789.4227854692
2	238022	597799.839172667494	1148.0431429911
2	238032	597812.244071184277	638.71754650781
2	238050	597837.359704362225	1792.5359692874
2	238063	597868.762146588618	401.57729518463
2	238065	597877.890703467856	629.41246883151
2	238074	597895.628885467257	69.750807595312
2	238090	597924.951859001959	566.69054821426
2	238092	597942.146048627865	657.5573472686
2	238123	598025.507462214564	896.97630696351
2	238129	598050.05502143931	1267.3678415945
2	238131	598057.321864408722	1224.3878729124
2	238157	598144.583463704336	694.96703765838
2	238163	598156.775126766118	408.72302407424
2	238168	598159.805545247197	1189.7104077281
2	238174	598164.035741656728	95.474016612408
2	238177	598168.314284651962	674.53826851627
2	238182	598168.953217505438	544.46909109336
2	238199	598199.268071312088	1558.0683264056
2	238202	598206.101935157951	1626.2598158103
2	238210	598223.320692193674	315.26327207688
2	238213	598228.091943169377	4168.5634542445
2	238222	598265.434460012774	257.53515515766
2	238230	598271.467315335172	575.79961384244
2	238232	598278.418945683068	115.3768810582
2	238246	598310.776606561361	2238.596725374
2	238254	598318.001736299883	2935.225556727
2	238256	598321.917035991582	755.1863112861
2	238270	598358.496123075283	3718.0523205316
2	238275	598365.627848916588	362.92847623755
2	238290	598408.030253054937	391.19542786474
2	238306	598428.082648578436	634.08255279094
2	238309	598428.305351474961	355.76564928155
2	238314	598449.354121882578	304.61665100962
2	238317	598457.518316702789	175.46740763715
2	238320	598463.650149674631	46.490849703188
2	238334	598487.435935411999	1375.5643718004
2	238336	598488.160040035092	608.90743658949
2	238349	598521.511285714196	3876.8909751896
2	238368	598570.828458296169	469.67774086003
2	238385	598634.824401077785	1160.6163541032
2	238388	598653.529899041355	1654.3587152671
2	238391	598664.415357338134	303.15713127295
2	238401	598711.10101637334	2455.1959593059
2	238404	598723.517674454499	1571.6922769529
2	238409	598755.505168992202	921.17894371365
2	238418	598765.91824787259	224.19173108149
2	238424	598790.002717830045	1283.1568801976
2	238439	598814.560771599096	327.80710834717
2	238447	598826.070905292189	542.59975995471
2	238450	598830.644329556995	2826.1832752006
2	238456	598833.6315691331	1460.2673971131
2	238461	598860.589678977915	1180.1657850099
2	238464	598864.078306048359	593.63426797584
2	238466	598864.74522609605	2108.9845125947
2	238471	598894.366578891458	304.73380551509
2	238479	598933.791611315028	746.38880132182
2	238481	598935.475234733273	1456.069560195
2	238483	598935.57992171149	454.49911590679
2	238491	598985.735394533973	3008.0507904076
2	238499	599005.729090960989	511.0910676022
2	238501	599008.074534853908	238.57227454393
2	238512	599036.359367631967	1333.6726842832
2	238517	599038.395320576996	1564.093007001
2	238531	599079.065380546934	2442.6069704412
2	238539	599120.590663557086	203.22401878094
2	238541	599121.188099224155	1956.9725620595
2	238558	599151.104560157262	802.79836451368
2	238572	599175.363046653005	747.90997636041
2	238595	599233.741808201896	2526.0929147447
2	238611	599256.053372898225	138.48934103814
2	238616	599260.663016927333	946.1260579577
2	238619	599268.201016519646	1099.7106405783
2	238621	599269.546078041414	654.22536651674
2	238629	599283.397830999867	290.3208635539
2	238631	599285.588278300563	39.110688904222
2	238639	599299.070416893768	498.47347856131
2	238641	599306.993372760652	1428.8339593721
2	238646	599322.232715005199	2760.7863105115
2	238654	599329.727207444466	54.502349909435
2	238677	599378.421363221741	1645.2342392626
2	238685	599383.835195725135	214.08336075575
2	238690	599388.159715492357	236.19012228218
2	238709	599435.640458468047	3043.3629101572
2	238715	599442.792942015908	1495.3496481196
2	238723	599445.324682850378	101.64168699811
2	238731	599451.974859430733	60.489882450122
2	238733	599487.562301479649	961.00967419967
2	238752	599522.066854068342	508.43430217302
2	238755	599522.453042752865	691.15179323657
2	238757	599523.342535989895	13.116768042714
2	238765	599538.9942832605	1643.4234009542
2	238776	599561.046626550462	366.27887547432
2	238781	599575.452373183523	1088.0457638797
2	238786	599583.513264590738	1747.0309742766
2	238806	599610.41132716817	1921.3674099278
2	238817	599652.890332508879	465.7509761828
2	238833	599688.247663822098	1643.8520852948
2	238836	599691.557230825432	2571.0288336472
2	238838	599694.5435113223	367.43018252104
2	238843	599702.214746542302	254.91814791449
2	238845	599705.138371425158	513.02262743016
2	238879	599746.207590334363	1615.4551456015
2	238882	599755.029528927619	1075.971197434
2	238896	599782.395982498677	178.07135234897
2	238914	599839.154772795082	844.88713247271
2	238927	599884.707836274821	1651.480995607
2	238930	599888.815138756937	1123.6830688787
2	238938	599916.223581610783	2087.1152515298
2	238941	599921.501926654151	196.04216540339
2	238944	599926.700638835789	545.51073616919
2	238951	599970.388602002927	1205.1013650019
2	238959	599986.912953517535	147.40060534054
2	238965	600001.752425338756	484.40036468073
2	238968	600031.131256406692	4351.4518911909
2	238981	600061.282987488907	939.83100623595
2	239003	600089.109405965711	647.11590466683
2	239006	600093.613158971075	712.52928527142
2	239009	600094.488374643488	1786.6249367128
2	239015	600125.106956663375	5698.9108484329
2	239021	600129.899078894203	386.32299865585
2	239024	600132.187612758252	390.93813532762
2	239027	600132.764567712909	2353.8965214278
2	239040	600165.642971871988	306.38721173295
2	239053	600202.050216025834	3113.6994179246
2	239056	600202.146590042521	1385.7846297125
2	239066	600218.642110071716	775.45210594704
2	239069	600223.399017962449	93.858083569208
2	239072	600228.708056808893	186.31922160643
2	239078	600238.353916871986	205.79787433973
2	239094	600267.273651530373	127.65194185495
2	239099	600281.392486137104	128.6360530588
2	239109	600318.974352334454	773.15286422873
2	239112	600322.956638053828	541.08839498973
2	239115	600323.291241204376	3271.2851428708
2	239117	600330.815376489745	1210.9495961683
2	239122	600344.173579246497	295.54125652952
2	239127	600346.699661744112	372.83909998698
2	239132	600353.803652887391	304.02350139323
2	239140	600389.0515813988	568.63328618412
2	239142	600390.419335685543	711.96371707342
2	239144	600390.547162460913	3310.2978717302
2	239161	600425.894093554201	635.96676344906
2	239163	600426.428515132814	1412.8037707345
2	239168	600441.224673748347	1316.5967327377
2	239170	600444.241618256067	835.52893247391
2	239175	600446.005182225398	1193.8771714559
2	239180	600465.42321698072	2214.8199760017
2	239182	600478.29625794193	1680.971503532
2	239199	600519.989437568891	2107.155793618
2	239201	600521.579557633707	330.44258704409
2	239203	600526.262497234656	841.90388690366
2	239205	600532.429379824107	1971.0238386317
2	239210	600535.335555114218	652.81992033785
2	239212	600546.215832999412	3208.7660830891
2	239217	600575.399683262599	321.26512572573
2	239225	600582.153588925249	587.25662504555
2	239233	600627.733512519635	3274.2433189512
2	239235	600649.754369540099	541.6440213619
2	239237	600682.419069842262	103.61136043661
2	239245	600712.227544056977	271.80855043609
2	239250	600722.328280702319	1070.1674114541
2	239255	600731.622821785147	285.86381700203
2	239272	600756.261316597408	2363.0095413768
2	239277	600784.428001735245	286.30066028402
2	239291	600798.256094339127	98.587638744065
2	239302	600821.041491692966	3573.7173432754
2	239307	600827.189863596327	2613.1033316406
2	239321	600848.507360017804	1471.0024692419
2	239326	600852.018882556069	1269.7181274943
2	239328	600863.811258063461	682.081199356
2	239336	600881.10697926962	527.75174875107
2	239341	600884.195324404354	1557.7127168937
2	239346	600904.275390545414	147.20842919972
2	239351	600929.454830629149	1854.0982498202
2	239353	600931.337158461311	104.17947147218
2	239361	600951.704641978761	1329.9194012418
2	239366	600970.797357139264	5474.4224376218
2	239368	600974.220964097743	1762.1851082932
2	239376	600983.188964165836	152.15715475512
2	239381	601020.867773052481	1461.8776170899
2	239389	601036.427011065368	736.68743165756
2	239394	601044.183324354303	176.90010630109
2	239396	601047.711536647618	841.72062636323
2	239410	601081.22223485642	3794.7061948908
2	239415	601091.406523012864	1538.6872804276
2	239417	601095.364767597917	348.23774766134
2	239461	601180.588980442052	119.44326140341
2	239472	601212.822854010885	3420.8867693662
2	239474	601215.911663861442	188.81586165708
2	239479	601229.7870626864	1841.0748550493
2	239487	601235.735054397007	855.38570054977
2	239504	601291.90105466375	310.12077882227
2	239512	601330.208055074504	621.69345499963
2	239514	601334.043984038647	1257.9836246268
2	239528	601364.064336094117	1536.7833851879
2	239533	601380.337130467901	1133.2132847572
2	239544	601392.542909309834	364.50211334614
2	239552	601395.974842689496	4146.2858394331
2	239560	601414.169002883381	338.26116316772
2	239562	601419.380848519749	634.26565820691
2	239570	601444.915651249714	56.298530664368
2	239572	601451.333785303067	1670.9059555317
2	239580	601457.408839602966	210.70758235503
2	239582	601459.519266729185	1128.1885159752
2	239587	601486.424653288549	604.73408558213
2	239595	601507.320978959678	325.22546923324
2	239603	601529.300207253778	296.12440600268
2	239611	601547.713323442481	735.13405145937
2	239616	601558.552098043773	65.438199394005
2	239627	601571.588949453334	2617.7109092848
2	239635	601584.70599062094	393.99599752049
2	239640	601587.128670154357	1817.4662650546
2	239642	601590.972695366982	58.049434162849
2	239644	601591.021465469431	4849.046229808
2	239652	601606.252531915459	1351.9561725475
2	239669	601631.497316570538	1133.5273536499
2	239671	601637.735719418763	1142.7023891949
2	239685	601657.459267688635	2370.6130054807
2	239693	601678.171967373328	82.524968843116
2	239695	601678.93402971695	564.31564989886
2	239700	601696.989037082892	393.91819070017
2	239702	601704.048196258435	1133.3564183945
2	239716	601743.558555247983	2151.455176547
2	239718	601748.816560680472	200.12566615297
2	239726	601757.006709573455	38.772086386067
2	239728	601757.877854611884	658.28783444458
2	239733	601769.81017141729	120.43233658529
2	239738	601787.680934507385	1037.5808849959
2	239740	601791.036452051532	739.33029320263
2	239760	601854.148625780086	929.65702896447
2	239765	601864.127455880419	287.35160560143
2	239767	601865.130773874367	472.05277786056
2	239784	601886.493992138879	11.008762119272
2	239792	601901.600567374673	1177.0592114391
2	239806	601950.72791370381	269.3023558479
2	239826	602034.488069346451	387.23363348198
2	239849	602135.038606558168	2421.6186258897
2	239854	602148.83472734181	2793.0793163148
2	239856	602175.739703537092	1076.2750996659
2	239858	602181.303446291251	384.4165719571
2	239875	602209.65003924645	24.932230257627
2	239892	602226.083164335261	1150.8684589129
2	239897	602229.139767246002	703.47206980136
2	239902	602242.241145854169	396.1699556982
2	239931	602327.904874811551	1033.9216298799
2	239939	602337.696851851463	1175.2425238804
2	239941	602344.587814144079	1348.4418486063
2	239943	602350.226043991546	212.97256834341
2	239963	602381.807292671679	81.480872508641
2	239971	602401.101845595035	294.15151583979
2	239976	602427.678215152944	2770.7008733085
2	239984	602443.244010384479	1605.9009005828
2	240013	602524.600345788356	688.10533741535
2	240027	602542.18036916373	1425.7662980425
2	240035	602584.80626760985	1172.8802557186
2	240037	602600.163318991433	1851.5358125801
2	240039	602607.929472999074	1478.5814499335
2	240041	602634.99983031086	1134.9477743338
2	240043	602636.270877671315	1013.7947172174
2	240054	602659.287085048376	617.13665587523
2	240059	602666.426230044109	3539.0068296951
2	240061	602667.856291849105	366.50858287106
2	240078	602708.936262740505	338.71070223811
2	240089	602767.897056467259	892.79019078717
2	240094	602770.375492207626	909.6251168909
2	240102	602786.902213505572	561.9704749765
2	240107	602795.8074615474	1045.1325101504
2	240115	602830.059227845181	2407.4826698293
2	240135	602874.050964999963	1094.3983807372
2	240137	602883.653523592279	1546.3319603538
2	240142	602886.882871174731	1684.0721361432
2	240180	602930.334684637532	538.98329549698
2	240188	602960.259526253072	117.14998029484
2	240193	602978.039619839827	759.1253027424
2	240195	602992.654077532034	1366.717224766
2	240203	603014.341205321887	1124.0201213809
2	240208	603019.808248008155	771.36115166676
2	240222	603050.805791744639	139.03507381025
2	240233	603062.159556023417	355.35858762627
2	240235	603064.845424084219	686.2858201186
2	240237	603071.280607331033	492.07487165007
2	240254	603102.833676474619	4542.7842170573
2	240256	603113.207436965447	226.96692523218
2	240258	603117.882121586478	1315.1225425123
2	240260	603119.269407134305	918.33850121501
2	240274	603135.796064391891	704.75213472059
2	240276	603137.082542108491	289.26454185595
2	240284	603162.278553647039	1733.2685876758
2	240286	603163.086671990082	690.05193202943
2	240288	603169.775541759437	1816.0380968145
2	240296	603208.264748209469	198.83645261295
2	240298	603216.769166736343	691.14222294067
2	240300	603220.04732869198	3703.9874252963
2	240308	603241.007442134567	3534.7716838186
2	240310	603243.247436607039	574.96591550316
2	240315	603251.919353241745	340.70481991558
2	240326	603258.905027455953	996.4479533667
2	240328	603282.235011774136	273.14791059385
2	240348	603313.208638956289	1120.8360913572
2	240350	603342.649495681275	553.5470692856
2	240367	603420.072580377781	764.03401392784
2	240380	603437.418783926666	459.40090410447
2	240382	603441.266065048203	409.64603575915
2	240390	603450.293292843371	749.50490708458
2	240402	603473.497394042694	374.19064960488
2	240425	603511.614750571314	256.55518599359
2	240430	603515.103679601759	308.81901526964
2	240432	603519.820674155808	1028.1807819684
2	240443	603576.395115664768	3344.7721675453
2	240448	603587.999356658145	888.77830612262
2	240459	603622.3852506723	752.48371447187
2	240461	603622.874675166167	329.39700667738
2	240466	603637.014615458053	1606.8318079608
2	240468	603663.373887539117	239.93736889354
2	240482	603684.325732067431	1665.5242675634
2	240490	603694.193015172309	925.5906491892
2	240498	603722.944074586522	530.09784597299
2	240500	603737.27300832905	1304.1402795428
2	240508	603752.205768751073	880.66696754445
2	240510	603765.370699199058	1015.1743587716
2	240527	603880.098212774748	572.7572133619
2	240532	603899.732975343975	1428.1693981103
2	240549	603930.146417775878	31.05342084129
2	240557	603947.729784151165	460.83852274561
2	240562	603949.516322342081	2388.4372750374
2	240573	603969.386235185419	843.69387265037
2	240581	603984.345654389504	932.06609636948
2	240583	603993.682665491983	432.69758670427
2	240600	604024.467135695706	1919.2006410552
2	240608	604037.428984686774	361.13922570822
2	240622	604088.588426184694	653.64481813109
2	240627	604098.216221904393	808.84749007192
2	240635	604128.693026942539	1483.8597199542
2	240643	604143.070338493788	756.99085971141
2	240657	604164.999421954961	1678.8359397455
2	240659	604167.184568399303	1243.8913829301
2	240661	604174.910629265263	1099.9869314562
2	240663	604178.006980034104	195.29449260896
2	240701	604263.708953514707	2047.7131736277
2	240703	604264.752181400574	231.81335529027
2	240708	604277.258627826976	909.91830515212
2	240710	604286.31206042824	851.84186770576
2	240718	604292.852502524772	817.2248683334
2	240729	604300.421529084845	510.25329440933
2	240731	604302.361152345158	2301.2173242011
2	240736	604304.127028430013	608.71447534869
2	240738	604312.396976700498	177.80450606962
2	240746	604354.735647660484	339.15252155755
2	240748	604358.83623480692	748.26544927774
2	240753	604378.89494526506	2794.8784544251
2	240755	604386.214746421446	3038.0810280653
2	240757	604400.895653865098	792.83962915647
2	240762	604417.890046401531	467.23004372753
2	240773	604455.27961846078	311.1344920339
2	240775	604455.662001833823	1419.5745403129
2	240783	604478.501023769696	363.29158200472
2	240785	604495.611206452665	257.93795087147
2	240790	604500.31081936958	827.61677560063
2	240807	604553.251362875336	1094.2421949928
2	240809	604557.280217668898	616.02599687736
2	240814	604564.15941255838	414.07134381458
2	240816	604586.893555496358	333.46938274774
2	240845	604652.748887761607	1422.836254694
2	240847	604654.720175540194	2392.25185008
2	240885	604784.207234859678	1099.91428565
2	240903	604844.527946266645	637.4372244312
2	240905	604863.674511179968	937.24083741472
2	240910	604905.71650148889	275.92291000051
2	240912	604922.409752806201	744.01722963552
2	240914	604930.00633507448	1675.2784420992
2	240919	604952.351579039518	1003.5757772499
2	240921	604961.673592338698	943.6718583004
2	240923	604966.079087735058	1886.7338346199
2	240925	604984.144447833924	1595.6615471022
2	240927	604987.875936817635	539.03085709061
2	240929	605052.550009215433	544.08031685919
2	240931	605144.412522363406	440.12152657257
2	240933	605147.271423207122	360.15285421005
2	240935	605152.272324811815	1071.9380513338
2	240937	605184.678097278521	732.55678961865
2	240939	605229.194164518264	678.06063821676
2	240941	605282.831561429323	647.52842873675
2	240943	605338.47575232216	776.37237910067
2	240945	605342.251183727292	1543.1877138248
2	240947	605439.284456102584	706.82187262435
2	240949	605464.965062853164	2645.8987554876
2	240951	605557.5572679391	821.16690658973
2	240953	605632.173843432112	1015.8270255416
2	240955	605688.879190301618	4097.3661289402
2	240957	605715.601380452718	1347.4152513845
2	240959	605744.387425645589	1106.4158036613
2	240961	605843.763992505431	1808.7971139914
2	240963	605959.510379128142	1761.6003284818
2	240965	605970.54725923933	1712.7027357155
2	240967	606009.425330467359	3805.0765760251
2	240969	606046.852624298231	2995.8345366522
2	240971	606058.975979254371	3721.4152618223
2	240973	606079.227146892905	1819.95992194
2	240975	606123.186796414647	1405.6792861639
2	240977	606159.003948802639	1813.8731275978
2	240979	606160.489155216679	2247.2144537618
2	240981	606207.127200483809	1909.4673269367
2	240983	606373.806536358698	2247.5179369754
2	240985	606390.083414840812	2439.1304366728
2	240987	606401.370244263731	4383.1601572898
2	240989	606456.956691528222	1959.0442107177
2	240991	606560.748963454932	1763.9555272191
2	240993	606567.975504299959	1846.8090132552
2	240995	606571.44102068485	3135.7782266628
2	240997	606681.566602988306	2943.1936939196
2	240999	607053.947560237718	2788.4271859546
2	241001	607175.838876690073	2538.4481486311
2	241003	607200.678497037804	2420.6970954309
2	241005	607771.90755903819	4152.868631175
2	241007	607919.151664734622	5006.9461952761
2	241009	608574.226105401053	5128.6115620015

