version 2
run General-0-20180425-13:57:18-11132
attr configname General
attr datetime 20180425-13:57:18
attr experiment General
attr inifile omnetpp.ini
attr iterationvars ""
attr iterationvarsf ""
attr measurement ""
attr network EmergencyResponse
attr processid 11132
attr repetition 0
attr replication #0
attr resultdir results
attr runnumber 0
attr seedset 0
param **.NYC_calls.interArrivalTime exponential(20s)
param **.responder_array[*].serviceTime exponential(60s)
param **.ambulance_array[*].serviceTime exponential(1020s)
param **.c1 6
param **.c2 61
param **.NYC_calls.stopTime 604800s

vector 0 EmergencyResponse.ambulance_queue queueLength:vector ETV
attr interpolationmode sample-hold
attr title "queue length, vector"
vector 1 EmergencyResponse.call_queue queueLength:vector ETV
attr interpolationmode sample-hold
attr title "queue length, vector"
vector 2 EmergencyResponse.Hospital lifeTime:vector ETV
attr interpolationmode none
attr title "lifetime of arrived jobs, vector"
attr unit s
0	0	0	0
0	3660	10210.71597633564	1
0	3662	10224.4773720285	2
0	3664	10235.139948889619	3
0	3669	10237.341074568656	4
0	3670	10249.845484382063	3
0	3673	10250.630079409746	2
0	3679	10256.815447963061	1
0	3685	10268.376753673808	0
0	3804	10467.793390445486	1
0	3812	10478.456560174545	2
0	3814	10479.397829995667	3
0	3818	10480.737041615048	2
0	3825	10481.282593100066	3
0	3826	10483.997170896272	2
0	3830	10492.530592761548	3
0	3831	10500.269343554644	2
0	3835	10504.316745065537	3
0	3846	10530.920174843443	4
0	3848	10532.183791635445	5
0	3850	10532.92288601575	6
0	3854	10560.198045978204	5
0	3857	10564.539666811807	4
0	3861	10565.464089809131	5
0	3862	10586.050280523298	4
0	3869	10629.043802324145	5
0	3877	10657.728518443793	6
0	3878	10658.887409416831	5
0	3888	10681.533900448103	6
0	3890	10694.681743514444	7
0	3891	10700.924445956593	6
0	3895	10709.417950283084	7
0	3896	10709.904565965462	6
0	3900	10725.400219079798	7
0	3908	10731.951600125401	8
0	3916	10750.798200252102	9
0	3918	10759.104590811392	10
0	3920	10760.045186914741	11
0	3922	10767.925249904393	12
0	3923	10793.661587848835	11
0	3926	10810.888439545468	10
0	3929	10819.212203956286	9
0	3938	10837.414918906891	8
0	3941	10839.249386198326	7
0	3948	10848.976560197437	8
0	3949	10851.031126099622	7
0	3956	10900.153568310007	8
0	3957	10918.32586058164	7
0	3960	10930.809433503039	6
0	3967	10935.223674705363	7
0	3968	10945.527277501288	6
0	3971	10961.734489763163	5
0	3974	10976.117012520863	4
0	3977	10979.051735738956	3
0	3986	10992.072505610716	2
0	3990	10996.394690598533	3
0	3992	10999.432109659177	4
0	3999	11014.170184049086	3
0	4002	11014.517932164875	2
0	4005	11043.853576298732	1
0	4016	11071.531001566858	0
0	4028	11082.641210670995	1
0	4031	11089.579244803168	2
0	4036	11095.993349655646	3
0	4043	11116.04337051674	4
0	4046	11122.526134529096	5
0	4051	11135.857173724847	6
0	4053	11137.543932610381	7
0	4054	11137.84842600639	6
0	4058	11149.790298380064	7
0	4059	11167.670745258886	6
0	4063	11177.209220887382	7
0	4064	11191.557979877277	6
0	4067	11192.505144780052	5
0	4074	11200.287661969987	6
0	4079	11201.929851053499	7
0	4081	11207.350122428115	8
0	4085	11220.100885593041	7
0	4089	11232.941521153957	8
0	4093	11255.234622189795	7
0	4096	11257.480760158433	6
0	4106	11261.35707793983	7
0	4107	11272.421941894913	6
0	4111	11273.052664435962	7
0	4112	11289.415075755872	6
0	4115	11292.149347258741	5
0	4118	11314.892030576009	4
0	4122	11317.811962218953	5
0	4133	11347.437484597984	6
0	4135	11348.475263766765	7
0	4137	11356.459404918024	8
0	4138	11359.215507277341	7
0	4147	11369.383790913321	6
0	4151	11391.816419932594	7
0	4152	11393.991617155533	6
0	4155	11400.846297635156	5
0	4159	11402.882519542152	6
0	4163	11413.05884910796	5
0	4167	11421.430811542357	6
0	4168	11441.796146490214	5
0	4174	11446.715498842341	4
0	4178	11467.177380359313	5
0	4179	11480.983084468129	4
0	4183	11482.417091685314	5
0	4184	11483.448098220959	4
0	4190	11516.966323898425	3
0	4196	11537.615704189072	2
0	4202	11541.355349582605	1
0	4209	11558.168318515502	2
0	4211	11565.878000443042	3
0	4212	11572.877451167441	2
0	4215	11576.170686926702	1
0	4222	11595.093721405211	2
0	4224	11595.835135869441	3
0	4231	11605.010306399907	2
0	4238	11614.759359506002	3
0	4239	11616.459370332008	2
0	4243	11627.757129229483	3
0	4244	11632.03765897666	2
0	4251	11636.520190372761	3
0	4262	11647.232546008457	4
0	4267	11652.918596157838	5
0	4269	11655.486143992102	6
0	4271	11658.635680004958	7
0	4275	11659.401944576599	6
0	4281	11662.741885214102	5
0	4284	11666.951068401396	4
0	4288	11672.858324716092	5
0	4290	11673.884303402292	6
0	4291	11683.569457568334	5
0	4294	11687.210788232422	4
0	4297	11694.52761854205	3
0	4303	11704.481532234513	2
0	4307	11707.638438967865	3
0	4308	11708.513470710805	2
0	4315	11736.36200188478	3
0	4316	11764.355839911109	2
0	4323	11766.359206170285	3
0	4325	11787.125083583335	4
0	4326	11797.036265035741	3
0	4332	11799.340746498059	2
0	4345	11809.305718485854	3
0	4347	11812.40786639244	4
0	4351	11834.667948631769	3
0	4354	11839.080973831057	2
0	4357	11841.423923822888	1
0	4361	11843.075253813163	2
0	4365	11860.373729220565	1
0	4372	11869.050646108938	2
0	4373	11871.771320931584	1
0	4376	11877.330427730341	0
0	4412	11945.283284261486	1
0	4414	11946.022977526951	2
0	4415	11957.096740459023	1
0	4419	11959.065888216897	2
0	4420	11962.366352285368	1
0	4430	11992.354519241521	2
0	4431	11993.175944910149	1
0	4434	12007.336695486173	0
0	4454	12080.309345871975	1
0	4459	12086.130691524287	2
0	4464	12106.266229305748	3
0	4465	12114.345327533337	2
0	4468	12127.625589391136	1
0	4471	12136.151258145306	0
0	4475	12139.246045685829	1
0	4479	12155.950288014001	0
0	4486	12170.079335895382	1
0	4487	12180.795800527662	0
0	4494	12196.781328377148	1
0	4499	12207.732952980062	2
0	4506	12215.590963484965	1
0	4510	12222.620168017382	2
0	4511	12226.32686898716	1
0	4514	12227.74421367129	0
0	4543	12298.203685964484	1
0	4548	12301.29008521969	2
0	4553	12309.501105085083	3
0	4554	12314.212316830367	2
0	4558	12320.321689296503	3
0	4560	12334.731644858427	4
0	4561	12346.71635186303	3
0	4565	12354.290295098324	4
0	4569	12369.458878912022	3
0	4573	12369.832992812373	4
0	4577	12394.764306101233	3
0	4583	12410.636944348464	2
0	4587	12414.561834310272	3
0	4588	12416.09243358842	2
0	4591	12422.534043227199	1
0	4598	12434.937459096812	2
0	4602	12456.2831209893	1
0	4605	12462.834757989061	0
0	5044	13584.970352289885	1
0	5046	13585.307852878223	0
0	14097	38536.517706875551	1
0	14101	38555.325659456244	0
0	14108	38595.852165880896	1
0	14113	38602.450392221395	2
0	14115	38607.872131208308	3
0	14120	38618.875373883012	4
0	14121	38619.836160107328	3
0	14125	38641.803786620105	4
0	14135	38657.632476349596	3
0	14139	38685.817607758258	4
0	14140	38709.424785666914	3
0	14146	38717.178037877767	2
0	14149	38720.194420660689	1
0	14153	38737.7331090562	2
0	14161	38746.541617654267	3
0	14162	38747.10967354257	2
0	14166	38762.234159969103	3
0	14171	38805.539633833227	4
0	14173	38813.07918609869	5
0	14175	38814.427680523206	6
0	14179	38829.808545265804	5
0	14188	38843.458053523959	4
0	14192	38845.415881506745	5
0	14197	38849.218631627099	6
0	14201	38852.83382321459	5
0	14211	38868.77142243559	6
0	14216	38893.293724588027	7
0	14217	38901.639955937653	6
0	14221	38901.662459516216	7
0	14222	38902.120165547768	6
0	14232	38917.761319701359	7
0	14234	38924.02256405792	8
0	14236	38939.179053627928	9
0	14243	38947.026961013816	8
0	14246	38952.29446953527	7
0	14250	38956.99264903153	8
0	14252	38965.614037650859	9
0	14254	38974.582333892764	10
0	14256	38982.709971573033	11
0	14258	38993.500437997552	12
0	14269	39004.737307526088	13
0	14270	39012.192447243874	12
0	14274	39012.232467903428	13
0	14278	39041.384793990795	12
0	14284	39060.443533982963	11
0	14288	39068.921344470056	12
0	14289	39077.867158766289	11
0	14292	39084.050850676945	10
0	14296	39086.488184569602	11
0	14297	39090.085311476099	10
0	14300	39094.707568225855	9
0	14303	39096.380263398863	8
0	14307	39099.125914115604	9
0	14308	39099.380620094161	8
0	14314	39135.027068310002	7
0	14320	39158.816419733565	6
0	14323	39162.433053966219	5
0	14329	39175.312498081488	4
0	14332	39181.106542227417	3
0	14335	39189.734017513674	2
0	14338	39196.74320032289	1
0	14348	39203.827072710376	2
0	14353	39209.890186571065	3
0	14354	39212.370811500204	2
0	14361	39218.900143579397	3
0	14362	39225.702298959263	2
0	14368	39237.524926295699	1
0	14371	39243.064728469751	0
0	14383	39260.5540899548	1
0	14385	39263.669212332831	2
0	14389	39274.278066334216	1
0	14392	39274.78413516493	0
0	14396	39277.798523594318	1
0	14397	39281.255648026635	0
0	14404	39304.703221918514	1
0	14406	39307.745240749604	2
0	14407	39312.646114540713	1
0	14410	39322.165281548316	0
0	14417	39340.556921843586	1
0	14418	39342.064674222972	0
0	14428	39350.907308311449	1
0	14429	39351.048407581414	0
0	14433	39358.937046912732	1
0	14438	39369.98167630232	2
0	14440	39371.835764524534	3
0	14441	39405.274847889541	2
0	14444	39424.091325174793	1
0	14451	39434.719001038065	2
0	14456	39440.532463546699	3
0	14457	39443.019499401979	2
0	14460	39446.033878852001	1
0	14469	39486.236789444002	0
0	14473	39492.457002215506	1
0	14474	39495.746833991842	0
0	14478	39506.221995155479	1
0	14479	39522.347414916884	0
0	15260	41365.508685410146	1
0	15262	41378.560077340761	2
0	15263	41384.194231368826	1
0	15272	41401.264749901041	0
0	15524	42015.830978520581	1
0	15525	42015.956054751231	0
0	15679	42354.066595845882	1
0	15681	42363.227084780724	2
0	15683	42364.869894076619	3
0	15684	42378.496545937283	2
0	15688	42384.550440794904	3
0	15689	42385.576085389227	2
0	15692	42386.10945304257	1
0	15696	42388.243669744959	2
0	15706	42412.780953183085	1
0	15709	42416.737187704398	0
0	15713	42417.231459415004	1
0	15714	42425.276034009321	0
0	15790	42668.061646655243	1
0	15791	42675.26482112657	0
0	15795	42677.499473602465	1
0	15799	42689.131680225973	0
0	15806	42714.250219720369	1
0	15807	42743.679420747704	0
0	16865	45117.901125897762	1
0	16866	45121.810874425314	0
0	16873	45131.18590404596	1
0	16889	45170.105946760487	2
0	16892	45171.026787746779	3
0	16897	45182.575518428331	4
0	16898	45183.222510632286	3
0	16902	45196.115516829943	4
0	16904	45196.439699423802	5
0	16905	45199.617836790182	4
0	16908	45211.687216190653	3
0	16911	45225.822702502677	2
0	16917	45230.755450365463	1
0	16921	45256.338668874923	2
0	16925	45293.348369617237	1
0	16932	45299.927059438198	2
0	16937	45314.657888514492	3
0	16938	45333.000214552578	2
0	16941	45333.06141149454	1
0	16945	45340.709633913614	2
0	16947	45340.92975023797	3
0	16949	45346.074902666505	4
0	16950	45352.045593142213	3
0	16959	45358.666101286916	2
0	16963	45361.435011065301	3
0	16964	45362.111709074569	2
0	16967	45365.606735674924	1
0	16970	45376.170327347738	0
0	16974	45378.30227436616	1
0	16975	45395.219642024823	0
0	16993	45443.084154548409	1
0	16995	45456.819268889412	2
0	17000	45465.647835038709	3
0	17001	45471.70589136745	2
0	17004	45480.36282868162	1
0	17007	45498.405658625037	0
0	17011	45522.637869410737	1
0	17015	45536.695057497779	0
0	17046	45590.747679054081	1
0	17047	45591.582312320795	0
0	18057	48123.386896239006	1
0	18061	48128.813355801761	0
0	18065	48137.361886537402	1
0	18066	48139.171906288464	0
0	18070	48140.532346278757	1
0	18071	48142.181293389979	0
0	18092	48178.875628527816	1
0	18093	48180.43783969167	0
0	18106	48189.281166883784	1
0	18111	48207.335581460211	2
0	18113	48207.42913096472	3
0	18115	48214.869704589954	4
0	18117	48218.947542450552	5
0	18121	48228.9987266608	4
0	18125	48238.222933474748	5
0	18130	48249.030064988532	6
0	18131	48263.074063585632	5
0	18134	48272.598103906085	4
0	18137	48277.474718912535	3
0	18147	48304.152019421922	4
0	18151	48306.927672507063	3
0	18154	48326.670464500375	2
0	18158	48333.704512642174	3
0	18166	48343.89855850519	4
0	18170	48353.890404960797	3
0	18174	48364.133246374719	4
0	18176	48366.616584571406	5
0	18177	48372.345424880923	4
0	18180	48383.954683050482	3
0	18184	48386.017823096134	4
0	18188	48404.84049838364	3
0	18194	48414.451584873838	2
0	18197	48416.857356926262	1
0	18201	48419.673790976846	2
0	18202	48425.163948331495	1
0	18205	48429.015214540012	0
0	18246	48526.381505576207	1
0	18251	48532.047113188361	2
0	18254	48532.900634003993	3
0	18257	48541.205181308656	4
0	18259	48541.707190094322	5
0	18260	48545.121670847126	4
0	18263	48547.9519668583	3
0	18267	48549.966295546185	4
0	18269	48555.313930934361	5
0	18273	48563.764174104011	4
0	18276	48568.096956256456	3
0	18280	48573.121807920517	4
0	18282	48573.239170023092	5
0	18283	48584.390464369138	4
0	18290	48590.47246670009	5
0	18298	48620.917514231476	6
0	18299	48622.985395551148	5
0	18308	48629.183381460162	4
0	18312	48630.543921218743	5
0	18316	48638.274370426261	4
0	18320	48649.875855456981	5
0	18321	48649.986504093059	4
0	18325	48650.381326214273	5
0	18333	48690.700286392881	6
0	18338	48707.820598766062	7
0	18340	48712.776879986056	8
0	18342	48731.074515485448	9
0	18349	48759.889560994142	8
0	18352	48771.531939421813	7
0	18355	48800.433947416009	6
0	18358	48816.266331107703	5
0	18361	48824.646267743988	4
0	18367	48836.611803867573	3
0	18374	48843.746905224774	4
0	18376	48845.824288054643	5
0	18377	48853.64556616885	4
0	18383	48857.214875567684	3
0	18387	48857.453086180356	4
0	18395	48864.956256593847	5
0	18397	48873.070045287874	6
0	18399	48877.177339846125	7
0	18401	48878.518685049451	8
0	18405	48892.955265467499	7
0	18408	48893.096128480875	6
0	18412	48900.706325259003	7
0	18423	48934.587375314648	8
0	18428	48958.462702267363	9
0	18429	48964.629215150209	8
0	18432	48970.993143824255	7
0	18435	48978.001396882904	6
0	18438	48980.667796195437	5
0	18448	49011.572855633403	6
0	18450	49011.743616331223	7
0	18457	49032.691839829534	6
0	18460	49035.496514587147	5
0	18464	49048.131369259904	6
0	18465	49050.949798042537	5
0	18471	49052.558032886643	4
0	18477	49068.170110261432	3
0	18480	49079.175535533275	2
0	18488	49088.959338104536	3
0	18492	49103.447177536963	2
0	18497	49105.562989965432	1
0	18503	49110.652521321424	2
0	18505	49113.483323354206	1
0	18508	49116.012124049373	0
0	18512	49122.517775831925	1
0	18517	49135.884187817013	2
0	18520	49137.845976914524	3
0	18523	49137.981981949825	4
0	18528	49142.160337056564	5
0	18531	49149.06200709205	6
0	18536	49163.424106853806	7
0	18537	49166.080727196751	6
0	18541	49168.628716354169	7
0	18543	49169.51691425633	8
0	18545	49184.765265515943	9
0	18550	49196.146698502991	10
0	18552	49202.290393075809	11
0	18553	49223.806261614635	10
0	18557	49236.978807926893	11
0	18558	49238.636480083641	10
0	18561	49260.455454019933	9
0	18567	49272.081796103783	8
0	18570	49281.319097490846	7
0	18576	49284.108212956704	6
0	18580	49297.660747425452	7
0	18581	49304.627216343073	6
0	18584	49318.199375916014	5
0	18587	49337.812197951281	4
0	18593	49345.442616803166	3
0	18599	49364.118256630195	2
0	18602	49368.577196402477	1
0	18605	49372.962906243163	0
0	18620	49407.090615973038	1
0	18627	49423.173857218382	0
0	18631	49432.401032697138	1
0	18633	49450.218555679939	2
0	18637	49467.763112142298	1
0	18644	49473.849016068393	2
0	18645	49474.971552261236	1
0	18649	49481.550485682307	2
0	18656	49510.91266666259	1
0	18659	49513.719398210678	0
0	18666	49530.26701813888	1
0	18667	49533.241391497286	0
0	18722	49595.917140861093	1
0	18723	49596.97723895546	0
0	18737	49620.67907886339	1
0	18739	49631.133422985388	2
0	18743	49639.158425406705	1
0	18750	49648.511967325258	2
0	18751	49665.671750258973	1
0	18757	49675.857334968488	0
0	18767	49696.728957936696	1
0	18769	49697.34801702142	2
0	18771	49710.971136855402	3
0	18775	49714.500526340628	2
0	18785	49719.747081809025	3
0	18786	49725.092154911207	2
0	18793	49728.293886999511	3
0	18801	49742.302916837009	4
0	18802	49745.746118076085	3
0	18806	49746.006202890953	4
0	18807	49747.05491914357	3
0	18813	49766.115991868999	2
0	18820	49786.387146235902	3
0	18821	49788.471404138233	2
0	18825	49795.612395410679	3
0	18830	49808.061043348103	4
0	18832	49809.339332258799	5
0	18834	49809.752562389834	6
0	18836	49818.137613121529	7
0	18837	49821.259010103765	6
0	18844	49831.158915472166	7
0	18848	49838.862080396078	6
0	18851	49842.591090340648	5
0	18855	49843.733820204366	6
0	18859	49862.188527197704	5
0	18862	49870.535566775664	4
0	18865	49874.947552317793	3
0	18872	49887.653570688961	4
0	18873	49901.01147630235	3
0	18880	49912.819116978039	4
0	18888	49922.950563336663	5
0	18889	49939.911832497075	4
0	18892	49944.064764377462	3
0	18895	49948.087181979402	2
0	18899	49962.897953715268	3
0	18907	49985.297451819059	4
0	18909	49986.916546810688	5
0	18910	49994.565228741502	4
0	18913	50017.396890005918	3
0	18916	50021.928512118848	2
0	18922	50046.393537869471	1
0	18926	50047.897959111869	2
0	18927	50050.881432504593	1
0	18937	50057.883350358128	2
0	18942	50068.450451226882	3
0	18943	50070.593728030355	2
0	18946	50072.822571288258	1
0	18949	50093.902556716093	0
0	18953	50097.690045104418	1
0	18955	50125.887674175296	2
0	18960	50132.721557300652	3
0	18968	50156.153349657466	4
0	18969	50167.277562003128	3
0	18972	50170.480379299638	2
0	18975	50183.024591339868	1
0	18982	50197.860648767944	2
0	18987	50212.108189757105	3
0	18989	50223.830842425863	4
0	18990	50233.094590827887	3
0	18993	50255.029129302205	2
0	19003	50263.580316020656	3
0	19008	50286.719464012158	4
0	19012	50290.11012604958	3
0	19016	50313.179692115569	4
0	19018	50323.004932793613	5
0	19019	50325.121872038845	4
0	19026	50337.409705783545	5
0	19028	50343.144935287983	6
0	19029	50349.138485566372	5
0	19032	50355.479157501121	4
0	19045	50381.483267206328	5
0	19046	50386.205648776862	4
0	19049	50386.400834421823	3
0	19056	50391.348104063749	4
0	19057	50403.716170816935	3
0	19061	50406.472465709514	4
0	19065	50426.190022174709	3
0	19068	50426.430103383449	2
0	19071	50426.683923641907	1
0	19075	50458.393055616573	2
0	19082	50512.07856012692	1
0	19085	50512.389800234818	0
0	19287	50988.674028000698	1
0	19291	50991.521991744896	0
0	19306	51021.83407765809	1
0	19307	51026.756028015791	0
0	19311	51037.848196692252	1
0	19312	51043.780559399346	0
0	19316	51043.939737745498	1
0	19317	51061.798304191029	0
0	19321	51062.843319274606	1
0	19326	51065.379720596369	2
0	19331	51083.911127715519	3
0	19332	51089.425685580579	2
0	19338	51127.857932117598	1
0	19341	51128.237894936368	0
0	19345	51132.99904381434	1
0	19350	51151.128688201959	2
0	19351	51155.198585628918	1
0	19354	51165.779365590878	0
0	19358	51196.759715696868	1
0	19368	51210.36258560777	0
0	20731	54508.251621483087	1
0	20738	54569.177322737726	0
0	20798	54665.567448927068	1
0	20800	54673.429570616397	2
0	20805	54682.127601792746	3
0	20809	54688.993410517204	2
0	20812	54693.6356375278	1
0	20815	54694.981882243099	0
0	21028	55096.914491641493	1
0	21033	55106.147066465431	2
0	21035	55106.915928771945	3
0	21037	55108.610604282554	4
0	21041	55114.738930332546	3
0	21045	55137.48514515261	4
0	21052	55155.167970258746	3
0	21055	55161.258987730503	2
0	21059	55183.809652449496	3
0	21061	55192.145458639084	4
0	21062	55205.621635646573	3
0	21068	55207.790660256621	2
0	21072	55211.38362772752	3
0	21073	55221.235286548869	2
0	21076	55240.151629649964	1
0	21079	55240.980830615829	0
0	21305	55835.242420795953	1
0	21313	55857.80796778872	2
0	21318	55858.388753959932	3
0	21319	55862.460035901141	2
0	21322	55863.373264937765	1
0	21325	55865.931103002338	0
0	21329	55875.451735753161	1
0	21330	55893.843480567015	0
0	22095	57694.922716458948	1
0	22102	57717.065681533788	0
0	22106	57720.042669666171	1
0	22107	57720.295821492153	0
0	22111	57723.914720038739	1
0	22112	57724.500615429017	0
0	22116	57725.3456141305	1
0	22117	57742.222204605625	0
0	22124	57748.693501845586	1
0	22125	57750.21962417126	0
0	22129	57763.768940221427	1
0	22130	57763.854366805347	0
0	22156	57830.757896609781	1
0	22157	57848.918996518646	0
0	22214	58046.939153192075	1
0	22218	58076.928514630353	0
0	22331	58282.109974358783	1
0	22332	58282.129629309021	0
0	22866	59520.256872515326	1
0	22870	59537.984538918899	0
0	22879	59557.895735432482	1
0	22880	59561.128242898432	0
0	25716	66493.110671123206	1
0	25720	66507.071303308596	0
0	25727	66536.296064042242	1
0	25728	66543.932824013055	0
0	25732	66544.349359495842	1
0	25734	66547.591912916414	2
0	25736	66555.396475523603	3
0	25743	66566.157127948651	2
0	25750	66573.76353451914	3
0	25754	66579.423774640133	2
0	25757	66584.431367240173	1
0	25761	66591.141191132006	2
0	25762	66591.452440275502	1
0	25766	66592.514126962826	2
0	25771	66609.517291017283	3
0	25772	66613.800445434555	2
0	25778	66639.940536851496	1
0	25784	66646.787707271742	0
0	25794	66686.877156218372	1
0	25795	66687.881130679932	0
0	25865	66854.766165534478	1
0	25866	66863.942479484594	0
0	26601	68920.908795251244	1
0	26606	68932.084241321501	2
0	26611	68949.967129662677	3
0	26615	68956.585415439297	2
0	26619	68959.20160779451	3
0	26623	68965.164747705186	2
0	26626	68968.509337588049	1
0	26635	69001.155458727388	0
0	26639	69001.245003591426	1
0	26644	69013.425129524575	2
0	26645	69016.386478152766	1
0	26648	69022.51985909852	0
0	26674	69045.134251548232	1
0	26676	69050.053963096629	2
0	26683	69063.543875341369	1
0	26687	69071.759894289374	2
0	26691	69078.234900423188	1
0	26694	69090.467246041689	0
0	26700	69101.463707072017	1
0	26702	69105.077900547266	0
0	26706	69108.784822151777	1
0	26708	69113.708171369579	2
0	26709	69115.321013430923	1
0	26715	69129.095731701246	0
0	26719	69130.706832117219	1
0	26721	69143.135952702631	2
0	26722	69144.657527159312	1
0	26725	69151.411773711239	0
0	26729	69159.234027259567	1
0	26731	69172.956380309506	2
0	26732	69173.796437078515	1
0	26736	69176.273788646622	2
0	26737	69190.602309268251	1
0	26743	69196.283370283877	0
0	27726	72001.429283595147	1
0	27731	72008.337054947541	2
0	27732	72009.363519525288	1
0	27741	72045.709184147876	0
0	27745	72053.403410040442	1
0	27747	72054.856753962907	2
0	27748	72068.320366305349	1
0	27754	72080.241844247829	0
0	27758	72084.13879310228	1
0	27762	72092.287202980199	0
0	27916	72511.920459096483	1
0	27921	72518.129938487383	2
0	27926	72542.938957178332	3
0	27928	72547.449011156578	4
0	27930	72554.771081668029	5
0	27931	72560.828898023151	4
0	27937	72563.81374257246	3
0	27940	72568.155123368414	2
0	27944	72587.343832273722	3
0	27946	72596.205566749252	4
0	27947	72596.601513683644	3
0	27956	72621.215565462243	2
0	27959	72629.769682839276	1
0	27971	72670.821280197682	0
0	27978	72680.403526217527	1
0	27982	72696.193151191587	0
0	27986	72697.129420635169	1
0	27987	72699.283558808459	0
0	27994	72704.882089931127	1
0	27996	72707.695494943265	2
0	27998	72716.538611308457	3
0	27999	72728.998769091272	2
0	28002	72730.3214350224	1
0	28005	72735.169957291537	0
0	28020	72760.803482805322	1
0	28021	72780.806833743166	0
0	28025	72781.779924716505	1
0	28027	72813.210167016896	2
0	28035	72871.988525568457	3
0	28037	72877.307586136064	4
0	28038	72880.117512324555	3
0	28041	72892.958297899889	2
0	28047	72902.649598864282	1
0	28051	72930.342001368424	2
0	28052	72930.43073862066	1
0	28058	72934.66564458404	0
0	28068	72942.386756762433	1
0	28069	72948.329127795502	0
0	28198	73251.321956728165	1
0	28202	73259.731872525514	0
0	28209	73269.535949956273	1
0	28211	73273.41973118064	2
0	28212	73282.933424952785	1
0	28216	73284.799652713296	2
0	28217	73286.16684962826	1
0	28220	73304.424392439177	0
0	28862	74904.402248646655	1
0	28869	74942.060126031657	0
0	28873	74959.486316404803	1
0	28875	74971.613528404198	2
0	28876	74974.067571587894	1
0	28879	74985.765660276652	0
0	29007	75260.778486988076	1
0	29009	75260.82704645674	2
0	29016	75271.471186041299	1
0	29019	75274.267681855424	0
0	29023	75277.442043252654	1
0	29024	75281.876837362741	0
0	29028	75287.738493917979	1
0	29035	75321.836299462699	0
0	29039	75323.569537126637	1
0	29041	75324.286311117709	2
0	29042	75328.529083827848	1
0	29045	75329.185766214256	0
0	29055	75340.996050318892	1
0	29060	75348.394885307189	2
0	29062	75359.046753086433	3
0	29063	75360.19448397258	2
0	29066	75384.807931353903	1
0	29069	75391.883660758783	0
0	29103	75472.847564642649	1
0	29104	75474.28375931256	0
0	29111	75478.765375467327	1
0	29115	75493.18053562382	0
0	29172	75615.988313795081	1
0	29179	75632.392310044554	0
0	29183	75632.659225311009	1
0	29185	75637.740955914273	2
0	29187	75639.464876008774	3
0	29191	75647.909634903148	2
0	29195	75652.660917383675	3
0	29197	75658.59323768709	4
0	29201	75686.468241946225	3
0	29205	75686.76584912298	4
0	29206	75705.809565798715	3
0	29209	75716.550666097473	2
0	29215	75726.061136448371	1
0	29222	75744.600167316455	2
0	29224	75748.337008635666	3
0	29226	75757.40231389853	4
0	29233	75766.623831930455	3
0	29243	75788.855691336874	4
0	29255	75809.824661332297	3
0	29259	75811.929489084006	4
0	29262	75814.889160017268	5
0	29266	75826.364356248344	4
0	29270	75827.977901802951	5
0	29271	75828.871384627994	4
0	29275	75830.275034753679	5
0	29277	75830.652177785453	6
0	29279	75831.069335183914	7
0	29283	75836.083992499794	6
0	29290	75845.182637069017	7
0	29292	75845.363956354339	8
0	29294	75845.950581801023	9
0	29296	75847.517911224878	10
0	29303	75864.188114770909	9
0	29307	75877.452911593261	10
0	29314	75903.117120214722	9
0	29318	75908.780537319135	10
0	29323	75922.183850015021	11
0	29327	75931.652411852927	10
0	29330	75943.285047313422	9
0	29333	75949.981195035839	8
0	29336	75957.003817236649	7
0	29340	75959.751253116772	8
0	29348	75964.22805291321	9
0	29349	75966.147729224287	8
0	29352	75970.801821699667	7
0	29355	75972.238384530963	6
0	29358	75974.264125304703	5
0	29362	75979.841619890626	6
0	29364	75981.0541369702	7
0	29369	76002.135931868573	8
0	29373	76013.965260253885	7
0	29377	76023.846050995219	8
0	29385	76043.437874266618	9
0	29386	76052.236824146861	8
0	29389	76062.447717191284	7
0	29399	76085.871346409324	8
0	29401	76086.156470699457	9
0	29402	76086.490213239263	8
0	29408	76149.684487186592	7
0	29418	76165.400996387241	8
0	29423	76193.19972424157	9
0	29424	76201.381580165296	8
0	29428	76205.59541936915	9
0	29432	76219.64260443149	8
0	29439	76232.534485722023	9
0	29447	76240.220644733757	10
0	29448	76253.558920646685	9
0	29451	76263.82114413831	8
0	29460	76278.429401739927	9
0	29463	76293.087350526026	10
0	29468	76304.293742600963	11
0	29473	76316.353198856211	12
0	29474	76321.275883348806	11
0	29478	76330.190315283303	12
0	29479	76339.708156006767	11
0	29483	76343.716157208397	12
0	29491	76372.109881702933	13
0	29492	76372.70332307885	12
0	29495	76374.983231905671	11
0	29498	76378.512431291402	10
0	29504	76381.645302173977	9
0	29508	76384.458386573994	10
0	29509	76393.683503814442	9
0	29513	76394.544359179195	10
0	29514	76397.388370445259	9
0	29518	76407.788381991365	10
0	29520	76409.884833926995	11
0	29521	76410.480705914269	10
0	29525	76411.362785491197	11
0	29530	76416.443565015944	12
0	29531	76416.484530989665	11
0	29534	76438.43242791764	10
0	29541	76443.07688279876	11
0	29548	76455.803542578926	10
0	29555	76477.719558123831	11
0	29559	76480.954348715334	10
0	29568	76519.008808145003	9
0	29572	76531.122596209814	10
0	29577	76537.833089289093	11
0	29581	76549.460447014591	10
0	29587	76559.70663116178	9
0	29590	76559.947533438573	8
0	29594	76569.688927715966	9
0	29595	76569.825915878342	8
0	29599	76573.237092869383	9
0	29603	76581.618164265867	8
0	29607	76586.193685374491	9
0	29608	76586.214388813163	8
0	29612	76592.38001442578	9
0	29613	76592.672739411121	8
0	29617	76598.516033034664	9
0	29618	76606.414185689107	8
0	29628	76631.78537034292	9
0	29629	76640.136613352202	8
0	29635	76644.997255456724	7
0	29638	76649.460807242933	6
0	29641	76655.580344316894	5
0	29645	76669.045780087466	6
0	29653	76683.975300878316	7
0	29655	76684.533257603224	8
0	29663	76688.514149520455	9
0	29667	76703.013254874398	8
0	29671	76708.665845936924	9
0	29672	76725.852969373385	8
0	29675	76736.759801712887	7
0	29679	76739.685038073317	8
0	29681	76744.199547379452	9
0	29686	76755.48576148758	10
0	29694	76795.636493837784	11
0	29696	76799.397144354099	12
0	29703	76819.887270825976	11
0	29710	76836.01909710098	12
0	29712	76836.729035667033	13
0	29713	76839.047038505901	12
0	29719	76849.500710101053	11
0	29723	76856.268038416317	12
0	29724	76863.143125170993	11
0	29727	76869.584213675417	10
0	29731	76879.064278706256	11
0	29733	76879.858728217653	12
0	29734	76894.327650062396	11
0	29740	76901.220103359054	10
0	29750	76937.23044810619	11
0	29751	76947.605786516803	10
0	29754	76950.652642335323	9
0	29761	76957.16611279754	10
0	29763	76958.222967641827	11
0	29770	76962.206258863656	10
0	29773	76962.589477935881	9
0	29776	76978.292257680053	8
0	29779	76992.240537920058	7
0	29783	76998.88219076407	8
0	29788	77014.465414555509	9
0	29790	77023.258001057919	10
0	29792	77029.146529724934	11
0	29802	77038.04636320604	10
0	29805	77039.854444548812	9
0	29812	77044.964505163908	10
0	29817	77053.994907444681	11
0	29821	77061.405025983147	10
0	29824	77064.030038198703	9
0	29828	77065.184763683843	10
0	29829	77071.405670140323	9
0	29842	77102.765890490579	8
0	29846	77114.292677077405	9
0	29850	77139.626745969314	8
0	29853	77146.190101972968	7
0	29857	77146.59535618919	8
0	29859	77155.498115090587	7
0	29863	77158.185386856673	8
0	29867	77160.61860384982	7
0	29870	77164.845325779973	6
0	29873	77166.122853864575	5
0	29879	77176.544428072095	6
0	29882	77180.29654916201	7
0	29884	77183.075166254632	6
0	29888	77184.262540775408	7
0	29890	77188.268796762311	8
0	29892	77197.415571947675	9
0	29894	77199.682730598323	10
0	29899	77220.407119397448	11
0	29901	77227.438090114788	12
0	29902	77229.521028199456	11
0	29905	77234.99598980239	10
0	29911	77242.87057744888	9
0	29915	77243.880127028194	10
0	29925	77308.888645985247	9
0	29929	77321.420523806267	10
0	29931	77326.326479357175	11
0	29933	77334.025906074417	12
0	29934	77350.597234296465	11
0	29938	77365.462879441779	12
0	29942	77372.533070700259	11
0	29946	77387.914074180461	12
0	29953	77403.488706699709	11
0	29959	77416.456184507983	10
0	29963	77423.26532087478	11
0	29967	77458.24758260462	10
0	29970	77485.023884368301	9
0	29976	77490.726318520392	8
0	29980	77495.709767015658	9
0	29984	77507.89024366993	8
0	29991	77515.903481787997	9
0	29992	77520.937697020711	8
0	29996	77521.696845831568	9
0	29998	77522.142515095182	10
0	29999	77531.208384150494	9
0	30002	77547.884577406449	8
0	30008	77571.824949660215	7
0	30012	77572.926888813442	8
0	30013	77593.871188779664	7
0	30023	77630.661223110076	8
0	30025	77631.295188915206	9
0	30026	77640.946187559529	8
0	30029	77642.444012564339	7
0	30035	77649.692020663835	6
0	30042	77666.814890981219	7
0	30043	77675.695906024131	6
0	30050	77688.343426317672	7
0	30052	77695.684132502964	8
0	30053	77717.097380077182	7
0	30056	77735.423387135338	6
0	30059	77750.046566882997	5
0	30063	77755.321414109217	6
0	30068	77761.149331185743	7
0	30069	77769.78587189763	6
0	30072	77800.317079196074	5
0	30079	77817.640929921372	6
0	30090	77855.259657456758	7
0	30091	77869.974697946462	6
0	30094	77878.004715341224	5
0	30100	77899.603445324464	4
0	30103	77906.445484427646	3
0	30107	77918.058188997651	4
0	30108	77922.789285881257	3
0	30111	77964.239728032107	2
0	30121	77968.755515667015	3
0	30122	77972.749285902282	2
0	30132	77990.757225792473	3
0	30134	77991.419011196596	4
0	30136	77996.332669714105	5
0	30140	77999.060210237341	4
0	30143	78000.383744169172	3
0	30149	78009.830843148694	2
0	30153	78018.971813815868	3
0	30155	78024.370648265193	4
0	30160	78035.013829979575	5
0	30164	78045.36678141212	4
0	30168	78045.425733746405	5
0	30169	78049.113087984219	4
0	30182	78063.897478877816	5
0	30186	78078.791084280195	4
0	30190	78086.400949612793	5
0	30194	78103.572629615586	4
0	30198	78107.567689336859	5
0	30203	78116.017905601697	6
0	30205	78117.261667528247	7
0	30207	78121.254290235499	8
0	30208	78125.2372411215	7
0	30212	78125.76073802873	8
0	30220	78147.07869116032	9
0	30222	78150.202973772071	10
0	30223	78154.779551896999	9
0	30226	78154.781210764666	8
0	30229	78162.374431045733	7
0	30232	78164.439864743482	6
0	30238	78166.98180273678	5
0	30241	78178.065302985646	4
0	30247	78187.059578068385	3
0	30251	78187.234793574457	4
0	30255	78204.967967483724	3
0	30258	78217.616596113401	2
0	30261	78219.800763108208	1
0	30267	78229.046831389844	0
0	30279	78238.223916910743	1
0	30281	78238.450506167096	2
0	30285	78244.123466232443	1
0	30288	78244.345515593243	0
0	30311	78279.924995278531	1
0	30316	78288.90863612049	2
0	30318	78300.704255957704	3
0	30320	78311.680670793015	4
0	30322	78319.246944069131	5
0	30327	78327.095098087842	6
0	30329	78337.928002570381	7
0	30336	78350.372599105869	6
0	30343	78363.772105763101	7
0	30344	78364.674996705135	6
0	30350	78370.778680333975	5
0	30354	78373.146831358615	6
0	30356	78404.03268774573	7
0	30357	78406.884296950637	6
0	30364	78424.410690615	7
0	30369	78430.202195173149	8
0	30370	78432.534822172773	7
0	30373	78436.842300492683	6
0	30377	78442.590453305537	7
0	30382	78472.13325931648	8
0	30395	78505.862367603051	7
0	30399	78515.680205608168	8
0	30400	78520.868824032378	7
0	30403	78528.128876282601	6
0	30406	78537.286288385354	5
0	30409	78540.750318124896	4
0	30413	78564.155485245039	5
0	30420	78568.48831248491	4
0	30426	78574.465395637904	3
0	30430	78582.855048279222	4
0	30431	78590.49484776362	3
0	30434	78591.20903757864	2
0	30437	78593.336466104344	1
0	30440	78598.291840041655	0
0	30455	78622.623007982436	1
0	30457	78624.144871016902	2
0	30458	78633.337744887092	1
0	30461	78638.933115133566	0
0	30465	78647.881766783483	1
0	30466	78657.986394047503	0
0	30470	78661.963629733208	1
0	30478	78687.370483091317	2
0	30479	78706.834581491965	1
0	30482	78716.609741636473	0
0	30673	79141.960451526459	1
0	30674	79143.828412107789	0
0	30882	79676.924196228071	1
0	30884	79691.205625697245	2
0	30888	79741.736208728132	1
0	30892	79741.967270194488	2
0	30896	79743.996336648102	1
0	30900	79745.614865940293	2
0	30902	79751.053733461368	3
0	30904	79752.930366871014	4
0	30906	79761.482633065259	5
0	30908	79764.870996882149	6
0	30909	79766.594404997042	5
0	30916	79774.367985857774	6
0	30926	79802.946906269697	5
0	30929	79803.721952418522	4
0	30933	79805.212904307638	5
0	30937	79808.399434091015	4
0	30944	79815.58465633085	5
0	30949	79840.867927682776	6
0	30950	79841.968245127026	5
0	30954	79845.601516674608	6
0	30958	79874.161241068304	5
0	30964	79882.850313327484	4
0	30968	79891.705236990776	5
0	30969	79894.885358803808	4
0	30976	79896.329883357533	5
0	30978	79906.314407516972	6
0	30983	79915.455728731031	7
0	30985	79916.91927902206	8
0	30992	79940.015095636003	7
0	30995	79944.510754949019	6
0	31002	79957.100693886333	7
0	31012	79960.979586944775	6
0	31016	79961.375857621713	7
0	31020	79972.001561765628	6
0	31028	80008.353823433551	7
0	31031	80010.040456129695	8
0	31033	80012.897708496454	7
0	31036	80016.467831378221	6
0	31043	80033.809352563983	5
0	31049	80038.148470465744	6
0	31052	80038.230691373364	7
0	31055	80038.857683504651	8
0	31058	80042.121820372711	9
0	31060	80044.009538493592	10
0	31062	80067.841972146133	11
0	31064	80093.526644211043	12
0	31069	80103.886518765972	13
0	31073	80124.657977490696	12
0	31077	80134.278619505053	13
0	31082	80147.308893644527	14
0	31083	80152.282598859879	13
0	31086	80158.441194212231	12
0	31102	80192.815997405013	13
0	31104	80205.844792322167	14
0	31105	80208.494449147986	13
0	31114	80219.5530398242	12
0	31117	80221.560908768325	11
0	31121	80226.855230636323	12
0	31122	80229.132360886219	11
0	31126	80234.289030540641	12
0	31128	80236.803951204604	13
0	31130	80237.868375354572	14
0	31131	80243.567154072616	13
0	31134	80253.056749803711	12
0	31137	80254.725370856184	11
0	31141	80270.452185306366	12
0	31146	80280.151749703584	13
0	31147	80280.913359973537	12
0	31151	80282.836257017996	13
0	31158	80326.828326810226	12
0	31162	80328.101331123415	13
0	31169	80343.028828132816	12
0	31175	80347.073395296706	11
0	31178	80354.256555449028	10
0	31182	80355.158172733096	11
0	31186	80368.751872537901	10
0	31190	80379.682841858915	11
0	31192	80382.89403113976	12
0	31196	80396.496426977086	11
0	31200	80397.10539199664	12
0	31202	80433.862757299536	13
0	31206	80436.481117879241	12
0	31210	80438.446289918237	13
0	31212	80440.623059876172	14
0	31213	80442.352866623295	13
0	31216	80450.560421333903	12
0	31229	80480.769627963681	13
0	31230	80492.101226263381	12
0	31233	80510.790699449667	11
0	31236	80515.68184951921	10
0	31245	80520.836892562329	9
0	31249	80545.881629616724	10
0	31253	80548.176314629642	9
0	31256	80550.277447019079	8
0	31263	80557.002674712356	9
0	31264	80564.838568175727	8
0	31271	80605.405145754933	9
0	31272	80606.781854883652	8
0	31279	80613.671954230509	9
0	31280	80616.734235310455	8
0	31284	80622.601988241011	9
0	31285	80626.884368428104	8
0	31288	80629.892576655239	7
0	31295	80642.588530087518	8
0	31297	80647.359308591646	9
0	31298	80663.215512146049	8
0	31304	80664.918133188921	7
0	31307	80676.08573026771	6
0	31314	80678.381254569811	7
0	31318	80683.141737626738	6
0	31322	80687.039490622658	7
0	31323	80692.43175125941	6
0	31326	80693.692624317651	5
0	31329	80697.334423501202	4
0	31336	80709.353229099258	5
0	31338	80712.155913175752	6
0	31342	80718.012139666736	5
0	31345	80722.304653759835	4
0	31349	80724.567656341448	5
0	31350	80732.995969160737	4
0	31353	80744.290292981848	3
0	31357	80752.391865908767	4
0	31362	80774.160306480935	5
0	31363	80779.465865050805	4
0	31366	80793.777328860931	3
0	31369	80797.263396068333	2
0	31372	80801.12393410501	1
0	31375	80807.480804960146	0
0	33868	87066.887917539221	1
0	33873	87072.667676730165	2
0	33875	87079.906346555573	3
0	33876	87085.648281375697	2
0	33880	87095.49372206836	3
0	33890	87107.961494887842	2
0	33896	87111.660741181777	1
0	33899	87114.200327078687	0
0	33906	87120.417778443484	1
0	33908	87129.388974575397	2
0	33910	87134.429571615434	3
0	33915	87136.683427303161	4
0	33917	87141.85278499311	5
0	33918	87150.503249399245	4
0	33921	87157.389554572161	3
0	33925	87168.309423520651	4
0	33926	87177.015967456098	3
0	33946	87223.775961649919	2
0	33952	87227.193996756301	3
0	33957	87232.551698680295	4
0	33960	87234.160230559644	5
0	33962	87235.515940798445	4
0	33966	87236.775946856139	5
0	33970	87253.250540314237	4
0	33974	87254.747329474952	5
0	33975	87262.180811029078	4
0	33981	87276.130101130824	3
0	33985	87277.062231192913	4
0	33987	87280.124872324268	5
0	33988	87283.329617930067	4
0	33991	87283.81174312325	3
0	33994	87291.977665426856	2
0	34000	87305.305098212485	1
0	34007	87309.166011991503	2
0	34008	87309.322091087609	1
0	34012	87314.003082937674	2
0	34013	87317.611673150275	1
0	34016	87317.884004956993	0
0	34020	87319.638471341294	1
0	34021	87323.487108450558	0
0	34092	87419.734670802225	1
0	34097	87423.142080741161	2
0	34099	87427.056900867359	1
0	34102	87428.823021333565	0
0	34114	87447.407623692082	1
0	34115	87451.482315358838	0
0	34119	87456.585036528431	1
0	34120	87459.830906890533	0
0	34212	87639.135468511733	1
0	34213	87641.226199278566	0
0	34217	87654.95252271972	1
0	34225	87668.48899369212	2
0	34227	87669.019556700316	3
0	34229	87673.600388979248	4
0	34239	87696.802107093835	3
0	34245	87707.893308745844	2
0	34249	87710.200546489673	3
0	34251	87713.413660904037	4
0	34253	87723.075726316545	5
0	34254	87724.224430131296	4
0	34257	87726.431638758296	3
0	34260	87734.662665254339	2
0	34264	87758.841169499386	3
0	34265	87759.981209474239	2
0	34272	87762.646227175179	3
0	34276	87764.586111949869	2
0	34283	87777.513114213275	3
0	34287	87781.670190279667	2
0	34290	87791.271767393406	1
0	34296	87794.185863629393	0
0	34306	87804.204204389193	1
0	34307	87804.633618948782	0
0	34314	87814.197275601818	1
0	34316	87824.594037816584	2
0	34318	87825.975123681803	3
0	34323	87828.975125854523	4
0	34327	87850.064015580857	3
0	34336	87863.796549643833	2
0	34339	87869.43675091897	1
0	34343	87872.996692036911	2
0	34345	87887.20259982744	3
0	34347	87888.307942809408	4
0	34349	87898.1687619835	5
0	34350	87906.479272712116	4
0	34353	87909.879621107144	3
0	34360	87921.150064579253	4
0	34364	87941.040149183299	3
0	34374	87975.036819105267	4
0	34379	87981.790116882016	5
0	34380	87986.451730439282	4
0	34384	87990.216658768688	5
0	34385	87992.603877561124	4
0	34389	88047.943886838961	5
0	34393	88068.822930061944	4
0	34400	88094.248453150468	5
0	34408	88113.129373746785	6
0	34409	88115.972842114654	5
0	34412	88124.106579499549	4
0	34415	88129.27179008244	3
0	34418	88133.810022173018	2
0	34425	88136.715868614507	3
0	34426	88137.964741032997	2
0	34429	88147.90780094365	1
0	34433	88159.002979699171	2
0	34434	88165.308460771666	1
0	34440	88176.009314003117	0
0	34444	88177.290508856149	1
0	34451	88186.975418222301	0
0	35868	91156.298359827042	1
0	35871	91160.587877752152	2
0	35874	91173.73298612042	3
0	35881	91189.188493496859	4
0	35883	91190.538427859429	3
0	35887	91191.91660590834	4
0	35892	91200.882331320005	5
0	35895	91202.818602133505	6
0	35898	91203.590856844403	7
0	35901	91220.809172807037	8
0	35903	91224.484341547252	9
0	35908	91245.953237397342	10
0	35910	91247.636692223093	11
0	35912	91247.928549647231	12
0	35916	91267.657274030065	11
0	35920	91273.993499007084	12
0	35922	91283.787923971317	13
0	35923	91298.225540028689	12
0	35926	91299.164470206094	11
0	35936	91317.876647519941	12
0	35941	91327.027544233437	13
0	35943	91339.569224062481	14
0	35945	91343.434275527238	15
0	35946	91351.209531442115	14
0	35949	91351.776974902736	13
0	35952	91363.485024355748	12
0	35958	91378.487672443141	11
0	35961	91396.962442610958	10
0	35965	91439.044265953138	11
0	35966	91441.260389806766	10
0	35969	91452.805025676097	9
0	35972	91480.427375645055	8
0	35975	91495.253193289737	7
0	35984	91517.898010421943	6
0	35990	91525.226515350232	5
0	35993	91535.746578729284	4
0	36003	91570.204691327274	5
0	36005	91582.632529246642	6
0	36006	91593.841376341862	5
0	36010	91600.344879599667	6
0	36012	91602.274318502141	7
0	36013	91604.245995182463	6
0	36016	91605.987641893822	5
0	36019	91607.785613654557	4
0	36022	91628.794148081301	3
0	36032	91676.863852957307	4
0	36036	91692.039547185577	3
0	36040	91718.646170988363	4
0	36041	91737.051421134687	3
0	36044	91751.976434328003	2
0	36047	91757.538412713346	1
0	36050	91768.407323035982	0
0	36054	91769.535195791984	1
0	36061	91803.526666021169	0
0	36090	91860.825517502255	1
0	36091	91871.801509756385	0
0	36100	91879.890606798053	1
0	36103	91880.917484954508	2
0	36105	91881.257910820031	3
0	36109	91905.246765207328	2
0	36113	91906.531491727602	3
0	36114	91909.93309966158	2
0	36117	91911.329733740748	1
0	36121	91921.358219456615	2
0	36122	91923.567575911763	1
0	36126	91926.699549562974	2
0	36127	91933.879405053697	1
0	36140	91953.738329126144	2
0	36145	91960.006746697652	3
0	36147	91966.839797702045	4
0	36148	91968.43156044195	3
0	36151	91971.886007646824	2
0	36154	91971.893185398931	1
0	36157	91984.366220994768	0
0	36161	91990.020347116259	1
0	36165	92004.771709659923	0
0	36169	92008.094179076935	1
0	36171	92019.732986668231	2
0	36176	92025.754513556705	3
0	36177	92026.539323059898	2
0	36180	92027.316983922502	1
0	36183	92047.065179153743	0
0	43564	111220.083624491108	1
0	43565	111224.765509650599	0
0	43591	111272.242479010214	1
0	43596	111284.561627386885	2
0	43600	111288.795391960634	1
0	43604	111301.79620924814	2
0	43606	111302.916614154583	3
0	43613	111328.068419002214	2
0	43616	111328.845883359341	1
0	43620	111329.673120489116	2
0	43622	111336.932755294034	3
0	43623	111341.29100759318	2
0	43629	111350.617843168155	1
0	43632	111356.263926359984	0
0	43649	111369.633509268859	1
0	43651	111372.688273582005	2
0	43652	111388.582519068698	1
0	43658	111397.825175056768	0
0	44313	112898.119386253698	1
0	44315	112903.282325705842	2
0	44322	112913.504330916591	1
0	44328	112915.728551298199	0
0	44364	113002.720661206098	1
0	44366	113003.280391456319	2
0	44368	113010.97800955752	3
0	44372	113025.288101629823	2
0	44378	113061.816429448092	1
0	44385	113065.212802663715	2
0	44396	113088.661848897832	3
0	44397	113090.391613481365	2
0	44400	113092.079661009979	1
0	44407	113092.673421207278	2
0	44408	113097.953892742408	1
0	44415	113102.490812860085	2
0	44417	113118.467277783267	3
0	44418	113120.56653695854	2
0	44422	113123.963892326341	3
0	44424	113137.115759178312	4
0	44432	113150.535760150784	5
0	44434	113151.028895407715	6
0	44436	113160.632130772567	7
0	44437	113161.067813268777	6
0	44440	113162.57393611684	5
0	44444	113175.212838899362	6
0	44451	113184.531729808018	5
0	44457	113188.847735660422	4
0	44463	113199.178038123271	3
0	44466	113203.980118337077	2
0	44469	113204.343649659346	1
0	44472	113210.361178938559	0
0	44492	113236.44557911969	1
0	44495	113245.218646072986	2
0	44500	113252.57137926805	3
0	44502	113253.088760800061	4
0	44503	113261.753214919281	3
0	44506	113267.317054586194	2
0	44513	113300.771475919457	3
0	44515	113302.081310506145	4
0	44520	113308.220430015999	5
0	44521	113320.186110069857	4
0	44531	113333.777995199073	5
0	44532	113333.99128852457	4
0	44535	113335.357108713209	3
0	44538	113348.197762729647	2
0	44545	113355.583836347939	3
0	44546	113356.520282683548	2
0	44549	113358.083860124676	1
0	44556	113374.914355106393	2
0	44561	113383.869603913007	3
0	44563	113387.569886558207	4
0	44564	113387.862648824653	3
0	44571	113404.930138533063	4
0	44572	113421.659453820722	3
0	44576	113437.299700369054	4
0	44578	113443.622503106406	5
0	44579	113452.06147351204	4
0	44583	113453.750212793957	5
0	44588	113462.734524496689	6
0	44592	113473.1428819587	5
0	44595	113476.501362492235	4
0	44601	113483.326063364835	3
0	44611	113496.317656386557	4
0	44619	113540.458712343022	5
0	44620	113541.536291219611	4
0	44624	113549.148993152378	5
0	44626	113562.485259146828	6
0	44627	113565.015110251022	5
0	44634	113590.655335507973	6
0	44635	113607.626338441209	5
0	44638	113618.301296526331	4
0	44642	113643.440932883195	5
0	44643	113649.769862251	4
0	44646	113652.778636015857	3
0	44652	113658.774914174452	2
0	44656	113679.503292186499	3
0	44657	113682.4223830195	2
0	44660	113698.270354586445	1
0	44666	113702.941359284504	0
0	44673	113733.198480287265	1
0	44674	113733.405393760998	0
0	44678	113755.29500952858	1
0	44682	113766.39496845368	0
0	44686	113774.338974912511	1
0	44690	113794.356845639891	0
0	47345	119984.184441494372	1
0	47349	120001.267122405568	0
0	47415	120107.053988339438	1
0	47419	120117.686199551458	0
0	47423	120127.947851988682	1
0	47427	120132.371350143764	0
0	47434	120138.021960277203	1
0	47435	120138.259626677715	0
0	47442	120146.622786405407	1
0	47443	120157.988671803236	0
0	47447	120161.79913610959	1
0	47448	120163.72410194395	0
0	47452	120179.582950757135	1
0	47457	120196.96324523315	2
0	47458	120205.393904250898	1
0	47464	120210.163006117114	0
0	47468	120213.447489689376	1
0	47469	120214.961530767213	0
0	47473	120250.132598151486	1
0	47474	120255.450143151121	0
0	47478	120258.787450049202	1
0	47489	120286.40934194981	2
0	47490	120297.17422590676	1
0	47494	120298.993783426693	2
0	47498	120315.985419425891	1
0	47501	120325.745968582016	0
0	47522	120357.917833194755	1
0	47523	120362.354786970432	0
0	47532	120395.825764729142	1
0	47533	120398.193292069946	0
0	54079	136626.387399475996	1
0	54080	136628.272084706585	0
0	54084	136637.228703365245	1
0	54088	136650.736939246949	0
0	54103	136691.344200569338	1
0	54104	136691.539754723595	0
0	54108	136691.73346563897	1
0	54109	136700.600379913551	0
0	54113	136701.690753304032	1
0	54114	136704.810674147026	0
0	54123	136721.164738274095	1
0	54124	136736.344688901354	0
0	54377	137392.199266383453	1
0	54381	137396.265165258212	0
0	54388	137414.256592852844	1
0	54389	137415.730166750332	0
0	54398	137438.726559792875	1
0	54402	137465.774466924256	0
0	54409	137473.687100013095	1
0	54411	137474.93291299743	2
0	54418	137483.169885131534	1
0	54422	137485.002319110484	2
0	54423	137497.719538232517	1
0	54426	137499.985713682677	0
0	54433	137502.069907294419	1
0	54434	137503.441507039197	0
0	54438	137503.981939521584	1
0	54442	137533.081127210051	0
0	54446	137541.45192558135	1
0	54448	137544.797968886129	2
0	54449	137564.048037422333	1
0	54452	137564.722029741607	0
0	55434	139753.887583025712	1
0	55436	139764.826785985297	2
0	55437	139782.210673770494	1
0	55441	139783.751126531962	2
0	55446	139790.495634886059	3
0	55451	139819.615817559965	4
0	55452	139822.812175746604	3
0	55456	139824.029117640314	4
0	55457	139843.161721303289	3
0	55460	139854.023068429236	2
0	55466	139882.511058712589	1
0	55470	139882.69063751001	2
0	55472	139890.629804173711	3
0	55473	139894.132418134614	2
0	55477	139921.650236516858	3
0	55482	139934.624866161828	4
0	55483	139937.725203782032	3
0	55486	139943.153521924524	2
0	55489	139954.62700881718	1
0	55495	139967.688080390968	0
0	55502	139971.511984619636	1
0	55503	139971.924760680218	0
0	61964	156331.627799886018	1
0	61967	156334.415433899182	2
0	61968	156339.524572932569	1
0	61971	156345.230732136591	0
0	61986	156369.898063524487	1
0	61987	156381.387910037119	0
0	62049	156488.569677274485	1
0	62063	156506.16076265206	2
0	62064	156506.803699207966	1
0	62068	156517.310599252232	2
0	62069	156518.003438490012	1
0	62076	156526.632107345693	2
0	62078	156531.774537996366	3
0	62089	156553.840907209117	4
0	62090	156561.880388388159	3
0	62094	156562.634539293286	4
0	62095	156569.395261598626	3
0	62099	156573.402154725502	4
0	62101	156574.86038311841	5
0	62102	156591.560758385809	4
0	62111	156607.93710375835	3
0	62115	156616.467761361516	4
0	62120	156632.457662207645	5
0	62124	156644.224293818659	4
0	62127	156645.848441538462	3
0	62133	156661.332916837364	2
0	62136	156663.743328325285	1
0	62143	156666.459391741764	2
0	62144	156670.191509612156	1
0	62147	156670.901663315386	0
0	62158	156691.45778163975	1
0	62160	156695.433675510315	0
0	62164	156697.256001955854	1
0	62167	156699.577843004202	2
0	62171	156707.369336121339	1
0	62175	156715.821432747846	2
0	62177	156721.21497888833	3
0	62178	156721.431605739308	2
0	62181	156729.72335231499	1
0	62185	156731.260157060107	2
0	62186	156743.97661484796	1
0	62192	156753.365665376114	0
0	62196	156756.877885588937	1
0	62197	156760.884403220453	0
0	62204	156779.042539190155	1
0	62205	156803.153466535298	0
0	62255	156908.566550226377	1
0	62257	156908.950979235756	2
0	62258	156910.607974364111	1
0	62262	156920.83562304951	2
0	62267	156937.017365285108	3
0	62268	156938.903190023601	2
0	62272	156944.261134798142	3
0	62273	156946.51567514684	2
0	62276	156987.864045957974	1
0	62279	156988.380578320401	0
0	62283	157004.445429791878	1
0	62284	157048.163027318735	0
0	62446	157420.629274701267	1
0	62450	157428.156924477911	0
0	63852	160955.820969797122	1
0	63856	160976.915913487436	0
0	63966	161291.828245535438	1
0	63967	161292.828395384553	0
0	69057	173758.312810657761	1
0	69058	173763.624635417319	0
0	71113	178487.870367235179	1
0	71118	178489.286581406588	2
0	71122	178494.954808504259	1
0	71125	178496.584200983328	0
0	71132	178501.997747370158	1
0	71137	178510.916949412003	2
0	71138	178515.638020651989	1
0	71144	178528.076840206704	0
0	71222	178706.851278173833	1
0	71227	178742.800041225392	2
0	71235	178764.76206992957	3
0	71239	178769.032790782041	2
0	71242	178771.626649740271	1
0	71246	178776.146902573386	2
0	71248	178781.800529275417	3
0	71253	178785.802709887461	4
0	71254	178786.217167019574	3
0	71258	178790.182859001728	4
0	71266	178827.177590719679	5
0	71267	178830.57976253977	4
0	71270	178835.965304448173	3
0	71273	178839.479743963401	2
0	71283	178853.313514541012	3
0	71293	178878.586353869103	2
0	71300	178883.39187554498	3
0	71301	178887.081343188612	2
0	71305	178887.374221724991	3
0	71307	178889.710054991937	4
0	71308	178890.975182635455	3
0	71311	178900.445939181173	2
0	71314	178901.912785214021	1
0	71317	178912.728446276633	0
0	71321	178917.747091419946	1
0	71325	178923.837374615533	0
0	71329	178931.371770249303	1
0	71330	178935.581668799252	0
0	71348	178965.250971940781	1
0	71356	178979.565670845552	2
0	71361	178994.60365729431	3
0	71362	179003.687467612941	2
0	71366	179008.184859585812	3
0	71368	179017.568700650703	4
0	71372	179033.296290483056	3
0	71375	179042.83394399415	2
0	71378	179045.364226190004	1
0	71382	179052.594735097006	2
0	71393	179075.539430658477	3
0	71397	179083.446565873533	2
0	71403	179087.267201620124	1
0	71409	179089.24713874277	2
0	71411	179092.04740018977	1
0	71415	179092.908542463451	2
0	71416	179095.864940623967	1
0	71424	179107.217317248779	0
0	71430	179117.551369274	1
0	71433	179121.044165674746	2
0	71436	179126.422604142964	3
0	71438	179135.13516609615	4
0	71439	179152.690252982316	3
0	71449	179164.459447048576	4
0	71451	179164.707753819747	5
0	71456	179165.514517457638	6
0	71457	179170.147290373281	5
0	71460	179171.308116185221	4
0	71464	179172.151111791758	5
0	71465	179207.494011780039	4
0	71469	179219.654221388631	5
0	71470	179223.849977284437	4
0	71473	179244.320088351109	3
0	71480	179257.620301432927	4
0	71488	179279.634492012898	5
0	71489	179282.932163814296	4
0	71493	179283.318976252132	5
0	71498	179308.329598632154	6
0	71500	179315.224174261032	7
0	71507	179328.720747837736	6
0	71511	179374.652958464837	7
0	71512	179381.815579050409	6
0	71515	179382.363047870819	5
0	71518	179383.903390713645	4
0	71521	179390.192450334565	3
0	71524	179395.862464843387	2
0	71528	179401.325019693742	3
0	71532	179408.827821233354	2
0	71536	179419.892185511513	3
0	71537	179428.380959930159	2
0	71543	179440.681088609368	1
0	71549	179449.087427754371	0
0	71556	179461.419450973573	1
0	71557	179469.219366552672	0
0	71561	179491.194664581897	1
0	71569	179501.76671666749	2
0	71571	179517.890435381496	3
0	71579	179546.983164938248	4
0	71583	179562.141607557339	3
0	71587	179564.93196623363	4
0	71592	179584.744895092503	5
0	71593	179586.908806358862	4
0	71596	179587.846789390207	3
0	71600	179588.698519632114	4
0	71608	179604.208893518167	5
0	71610	179606.921317780222	6
0	71611	179607.597189008513	5
0	71614	179609.958378348142	4
0	71621	179611.984389306953	5
0	71623	179632.79818323373	6
0	71628	179647.224915796075	7
0	71630	179664.298284018933	8
0	71634	179692.423090094391	7
0	71638	179693.182524472202	8
0	71639	179705.732820582296	7
0	71642	179714.714007599287	6
0	71649	179763.139470874442	7
0	71654	179769.909752689632	8
0	71655	179777.595875277668	7
0	71661	179784.528765453194	6
0	71664	179785.569879380109	5
0	71667	179788.523643926294	4
0	71671	179799.823833168605	5
0	71682	179823.384117090915	6
0	71683	179826.361641086494	5
0	71690	179838.522209803426	6
0	71698	179861.235670670676	7
0	71700	179861.935886967121	8
0	71707	179886.760126445672	7
0	71711	179892.74357595081	8
0	71712	179896.752712020387	7
0	71718	179898.713639120766	6
0	71721	179899.06481574219	5
0	71727	179919.488371765335	4
0	71734	179925.567971825635	5
0	71735	179926.000145246532	4
0	71739	179927.790083332614	5
0	71740	179936.818287690421	4
0	71744	179940.002587315534	5
0	71745	179950.442937296697	4
0	71751	179960.57845128117	3
0	71755	179972.687439470154	4
0	71760	179980.18018096962	5
0	71771	179999.031907573487	6
0	71773	180005.879591103157	7
0	71775	180010.370209268618	8
0	71777	180012.160767349722	9
0	71782	180013.374268897553	10
0	71783	180035.6636570543	9
0	71787	180046.032811873284	10
0	71788	180046.460043574931	9
0	71794	180050.193549841296	8
0	71798	180058.536863438529	9
0	71799	180063.730927437378	8
0	71802	180067.437427742126	7
0	71809	180090.158769838256	8
0	71810	180095.757250669846	7
0	71813	180097.267062509415	6
0	71817	180104.918390771925	7
0	71818	180110.394005046334	6
0	71827	180123.204556661278	5
0	71830	180149.278436933443	4
0	71833	180150.482990749518	3
0	71836	180151.437128301185	2
0	71843	180155.857128069986	3
0	71844	180164.774996472556	2
0	71851	180180.353422946573	3
0	71853	180181.900100614392	4
0	71854	180183.567471444996	3
0	71858	180198.910726344732	4
0	71859	180205.632870076067	3
0	71862	180210.450763260531	2
0	71868	180239.953645071786	1
0	71871	180240.353824944959	0
0	72311	181169.34273406268	1
0	72313	181172.905695343796	2
0	72314	181180.688594677414	1
0	72317	181194.646814920136	0
0	72338	181252.087284870153	1
0	72340	181252.551940797143	2
0	72342	181267.242368216551	3
0	72344	181269.921872741319	4
0	72348	181283.550910147984	3
0	72351	181297.412477569967	2
0	72354	181298.629343562921	1
0	72357	181311.685463358588	0
0	72361	181320.286473075014	1
0	72362	181321.885380005151	0
0	72390	181373.11424639915	1
0	72392	181395.36458836938	2
0	72393	181395.678253726638	1
0	72396	181403.099646818591	0
0	72466	181548.528247242159	1
0	72468	181551.346051448443	2
0	72472	181561.108334032021	1
0	72475	181562.288881649824	0
0	72479	181569.329343831315	1
0	72487	181577.009835327966	2
0	72489	181579.437818699042	3
0	72491	181588.417858514459	4
0	72493	181591.494752994898	5
0	72497	181612.655214736688	4
0	72507	181642.642614397628	5
0	72509	181651.732192679299	6
0	72510	181653.850795116298	5
0	72513	181688.98150353347	4
0	72516	181689.133993312409	3
0	72519	181690.737470669424	2
0	72525	181708.220992326488	1
0	72528	181713.039671702103	0
0	72532	181713.942504809583	1
0	72533	181720.540770883917	0
0	72537	181730.818496529322	1
0	72542	181763.731058363808	2
0	72543	181771.667957840456	1
0	72546	181785.252181547564	0
0	72658	182060.971367411333	1
0	72659	182061.094933713354	0
0	72676	182094.344213179065	1
0	72677	182097.449228267392	0
0	72998	182755.386311214108	1
0	72999	182764.247379482715	0
0	73518	183860.587515434466	1
0	73520	183861.822625619962	0
0	73524	183864.079256502534	1
0	73527	183864.719652776824	2
0	73528	183869.793770121466	1
0	73532	183873.289330936462	2
0	73534	183882.120831369975	3
0	73538	183890.989208445865	2
0	73545	183903.331198695005	3
0	73547	183907.927133757419	4
0	73548	183912.93384795725	3
0	73555	183918.26612909627	4
0	73559	183925.450639691433	3
0	73566	183947.605623637545	4
0	73574	183960.870456722947	5
0	73576	183966.753706106619	6
0	73578	183968.64692354185	7
0	73583	183988.662043016442	8
0	73585	183990.892276643744	9
0	73589	183999.994845935683	8
0	73593	184007.44104602328	9
0	73595	184013.849916362928	10
0	73596	184015.224971361983	9
0	73605	184041.553410615986	8
0	73612	184059.705441200861	9
0	73613	184060.215690406336	8
0	73625	184095.292578763899	7
0	73628	184096.786022316317	6
0	73632	184104.063689816368	7
0	73637	184107.645731629555	8
0	73639	184124.789599622647	9
0	73644	184146.717148436814	10
0	73645	184147.96057707299	9
0	73649	184152.596362915796	10
0	73651	184158.784981646364	11
0	73656	184180.972033331328	12
0	73660	184188.463904808808	11
0	73663	184190.77725330777	10
0	73667	184204.14583812271	11
0	73668	184208.361768168125	10
0	73671	184211.12593537828	9
0	73675	184213.36316902857	10
0	73676	184223.048404383911	9
0	73679	184225.655269708937	8
0	73682	184232.315680731902	7
0	73685	184233.457113753443	6
0	73692	184237.112742003564	7
0	73694	184249.766511785786	8
0	73699	184263.954227182706	9
0	73700	184270.006882462743	8
0	73703	184273.928265302449	7
0	73713	184295.84914473344	8
0	73718	184333.601912588211	9
0	73719	184345.003404719432	8
0	73732	184364.849113123414	9
0	73733	184367.530548706316	8
0	73736	184368.361339852121	7
0	73749	184387.349818922782	8
0	73751	184390.36848975179	9
0	73752	184397.07213429935	8
0	73758	184405.257629450003	7
0	73762	184417.94031530709	8
0	73763	184422.706031045657	7
0	73770	184441.211442950031	8
0	73774	184458.575463739549	7
0	73777	184462.938142154046	6
0	73780	184468.025796277946	5
0	73784	184476.126442294785	6
0	73786	184484.940999540171	7
0	73794	184504.079079490902	8
0	73795	184506.008904702289	7
0	73799	184508.827254970216	8
0	73800	184522.951551044287	7
0	73804	184527.708947777438	8
0	73805	184535.28120134714	7
0	73811	184544.493667915119	6
0	73823	184552.224241083349	5
0	73827	184556.666507557468	6
0	73829	184565.602413825609	7
0	73836	184573.888961584753	6
0	73839	184576.986069702452	5
0	73842	184584.706227091707	4
0	73845	184584.753438988506	3
0	73851	184594.027505766658	4
0	73857	184602.077983329018	3
0	73863	184620.73478526835	4
0	73865	184627.821036867979	3
0	73869	184630.22572409071	4
0	73872	184644.422401839816	5
0	73876	184648.03666756338	4
0	73880	184650.308102597266	5
0	73883	184655.474065128195	6
0	73885	184661.39998933222	7
0	73886	184670.604991457902	6
0	73889	184674.990680533605	5
0	73893	184681.349927334673	6
0	73898	184697.758086640529	7
0	73903	184726.973120628539	8
0	73907	184735.341075776184	7
0	73911	184740.606915404814	8
0	73915	184743.36553105041	7
0	73918	184762.477768408008	6
0	73922	184763.508191677503	7
0	73923	184771.309537464626	6
0	73927	184775.429565639694	7
0	73928	184778.782122955	6
0	73935	184780.109916925779	7
0	73940	184781.71842112176	8
0	73941	184783.132981991874	7
0	73944	184785.055855345248	6
0	73951	184806.699092404884	7
0	73953	184830.983634690091	8
0	73954	184842.934474872103	7
0	73958	184845.868535196675	8
0	73962	184850.956907310844	7
0	73971	184861.03912407598	6
0	73975	184863.984063546909	7
0	73976	184864.252813847122	6
0	73979	184873.665835763121	5
0	73985	184878.066725658262	4
0	73989	184880.232576394427	5
0	73990	184886.188542582462	4
0	73993	184888.186417163841	3
0	73999	184894.103877266154	2
0	74002	184898.183428725205	1
0	74006	184910.249498645301	2
0	74007	184912.539835379636	1
0	74023	184935.90249070447	2
0	74025	184938.258551174811	3
0	74034	184944.438390399563	2
0	74039	184949.318446083192	1
0	74042	184956.21791583922	0
0	74132	185112.798663082334	1
0	74134	185120.609651534298	2
0	74135	185130.073407564886	1
0	74141	185139.445060507634	0
0	74193	185237.870743590675	1
0	74194	185244.212861662401	0
0	74476	185950.351306798154	1
0	74484	185960.348150609609	2
0	74485	185965.131871799517	1
0	74489	185973.73917259374	2
0	74490	185974.106193260639	1
0	74494	185994.951314481484	2
0	74495	186016.54621157042	1
0	74501	186038.482554933044	0
0	74508	186042.919745630565	1
0	74510	186045.800029754939	2
0	74511	186051.752289752097	1
0	74515	186052.175019100718	2
0	74519	186065.396505447759	1
0	74526	186079.024569984029	2
0	74527	186088.454604185196	1
0	74530	186113.369847073665	0
0	74548	186139.36638161527	1
0	74550	186155.77418899567	2
0	74551	186155.899784627373	1
0	74554	186157.547358325933	0
0	74593	186234.267213443927	1
0	74607	186276.59934686185	2
0	74608	186279.049864626632	1
0	74612	186285.979666574867	2
0	74614	186306.708577556995	3
0	74615	186308.608386259732	2
0	74619	186310.21276218347	3
0	74620	186311.687391988703	2
0	74627	186314.003934561345	3
0	74628	186319.875264441142	2
0	74631	186320.896474256277	1
0	74634	186322.086286888112	0
0	74641	186330.131385113141	1
0	74642	186347.340144801743	0
0	74649	186350.69771200376	1
0	74653	186369.62673359455	0
0	74681	186447.399379894195	1
0	74685	186464.87196009336	0
0	74689	186476.813000337596	1
0	74691	186477.290259565043	2
0	74693	186490.881372091482	3
0	74694	186496.274392021166	2
0	74697	186496.304970336543	1
0	74703	186523.552671362351	0
0	77070	192276.684945107035	1
0	77071	192277.763964823065	0
0	77078	192285.417944615347	1
0	77080	192289.588119728102	2
0	77081	192305.320709090171	1
0	77090	192320.183343533015	0
0	77108	192361.92615606543	1
0	77109	192368.313796481539	0
0	77113	192369.88178624359	1
0	77115	192374.212986928087	2
0	77116	192380.803028272014	1
0	77119	192382.143379855866	0
0	77159	192464.031837770165	1
0	77161	192464.420190639337	2
0	77172	192473.815040102327	3
0	77177	192476.949312844544	4
0	77179	192482.788740311931	5
0	77181	192484.961140318744	6
0	77186	192492.677971497578	7
0	77187	192494.120544575898	6
0	77191	192496.1461625203	7
0	77193	192496.147199519836	8
0	77198	192514.696984528844	9
0	77202	192529.659856121709	8
0	77205	192539.81804092186	7
0	77208	192540.518657298281	6
0	77217	192553.606011714272	5
0	77226	192560.484038104846	4
0	77231	192570.23838004377	3
0	77243	192579.886477894925	4
0	77246	192587.331557090613	5
0	77249	192588.408228601259	6
0	77252	192600.894828069214	7
0	77255	192605.635194287354	8
0	77258	192609.633024922192	9
0	77259	192611.211209330899	8
0	77262	192621.576945570493	7
0	77265	192626.213688291972	6
0	77274	192639.990852243415	7
0	77277	192640.051202029442	8
0	77279	192647.125439445026	9
0	77287	192661.865142103362	10
0	77291	192685.928543033967	9
0	77296	192701.435414441646	8
0	77299	192701.682307063949	7
0	77305	192709.512832932255	8
0	77311	192720.740567430611	7
0	77315	192727.672020549659	8
0	77319	192728.860095935528	7
0	77323	192730.203138932066	8
0	77325	192735.430480709356	7
0	77329	192759.08503976712	8
0	77331	192760.480342665368	7
0	77334	192761.028047252165	6
0	77337	192770.0634124762	5
0	77341	192773.329662565913	6
0	77344	192775.603315759737	7
0	77345	192777.639616675609	6
0	77354	192793.34383882098	7
0	77356	192794.061350855277	6
0	77359	192797.26617060704	5
0	77363	192797.292722204738	6
0	77367	192809.267181936929	5
0	77371	192810.286856885141	6
0	77373	192814.776226962979	7
0	77374	192817.503618060544	6
0	77378	192831.527459906884	7
0	77379	192839.686815373454	6
0	77388	192848.501199855185	5
0	77397	192862.605206634319	6
0	77402	192892.026470479823	7
0	77404	192893.043104227239	6
0	77408	192899.629059633444	7
0	77410	192904.442453532939	8
0	77411	192923.170469633721	7
0	77418	192926.830288539697	8
0	77420	192935.690823203207	9
0	77431	192952.54021986116	10
0	77432	192953.631224992914	9
0	77436	192954.050589646076	10
0	77440	192969.624912184168	9
0	77443	192982.090134231278	8
0	77450	192987.689140562594	9
0	77456	192995.900196709825	8
0	77459	192996.498016590887	7
0	77466	193000.517074452073	6
0	77472	193010.888113888263	7
0	77475	193012.441471299856	8
0	77480	193022.565364815161	9
0	77482	193024.272619605809	8
0	77486	193029.698968719852	9
0	77489	193033.656077256739	10
0	77492	193033.926038521836	11
0	77494	193040.818860740911	12
0	77496	193042.722930169374	13
0	77498	193045.985353151776	14
0	77503	193060.963898707039	15
0	77504	193070.489040569629	14
0	77508	193074.31624222113	15
0	77509	193074.476355899921	14
0	77518	193092.896635637555	13
0	77524	193099.545697281765	12
0	77534	193122.538204122155	13
0	77536	193122.965089212103	14
0	77537	193132.042569834116	13
0	77540	193132.425830670224	12
0	77543	193139.541385416624	11
0	77547	193140.999934750454	12
0	77549	193141.332903654051	13
0	77550	193145.730693607881	12
0	77565	193152.693038966216	11
0	77569	193157.429087101132	12
0	77571	193158.54769316839	13
0	77573	193162.641569961121	14
0	77574	193165.732520716171	13
0	77578	193168.053919567142	14
0	77579	193177.150274027144	13
0	77582	193178.469855022246	12
0	77586	193178.672181313953	13
0	77587	193193.910383288886	12
0	77591	193199.566007040313	13
0	77595	193228.769460976801	12
0	77598	193231.738198842325	11
0	77601	193248.953471620594	10
0	77610	193262.658380354341	9
0	77622	193285.229774117959	8
0	77626	193289.914929478348	9
0	77628	193290.681611387152	10
0	77629	193290.731133749527	9
0	77639	193302.256991506218	10
0	77640	193316.315055074243	9
0	77644	193326.706416546193	10
0	77645	193334.14745965235	9
0	77652	193337.0641835005	10
0	77657	193346.131314904103	11
0	77658	193348.151010100384	10
0	77664	193360.754918816608	9
0	77670	193367.517575539803	8
0	77675	193377.487454879448	7
0	77678	193377.643848656374	6
0	77684	193406.975564488382	7
0	77687	193407.722369903603	8
0	77690	193408.94698225761	9
0	77692	193410.453163276938	10
0	77694	193415.717924446971	11
0	77702	193435.706193393986	12
0	77703	193439.358162378644	11
0	77707	193440.431000758107	12
0	77708	193440.437223662681	11
0	77714	193448.334296116992	10
0	77721	193459.442854854138	11
0	77722	193462.981821883746	10
0	77729	193466.110086823134	11
0	77731	193480.486760043644	12
0	77733	193481.291093965781	13
0	77740	193498.025783133729	12
0	77744	193498.603404960213	13
0	77745	193508.751565417496	12
0	77751	193514.809301160668	11
0	77755	193524.869327619987	12
0	77757	193536.031710078679	13
0	77765	193554.347698957202	14
0	77766	193556.343018840264	13
0	77769	193585.050932734546	12
0	77784	193593.048918134141	13
0	77786	193597.350411978299	12
0	77793	193617.150202578202	11
0	77797	193630.127940823805	12
0	77799	193631.824324284526	11
0	77806	193650.233631848568	10
0	77810	193650.698910391693	11
0	77813	193651.453816694651	12
0	77816	193653.813692539085	13
0	77819	193654.335025199635	14
0	77821	193655.029933658153	15
0	77822	193675.924435652925	14
0	77825	193684.313327829307	13
0	77829	193687.12787373873	14
0	77831	193689.993325301671	15
0	77835	193701.817972849018	14
0	77839	193729.372576922221	15
0	77841	193732.397534871372	16
0	77842	193742.493229135178	15
0	77845	193753.385256957716	14
0	77848	193768.063471469713	13
0	77851	193781.108850930961	12
0	77861	193798.935789063031	13
0	77862	193813.859727219529	12
0	77865	193815.800860134552	11
0	77868	193817.738272332238	10
0	77871	193817.827136720437	9
0	77878	193824.347325056956	10
0	77882	193839.472149255184	9
0	77888	193854.840968667795	8
0	77897	193876.530278176318	7
0	77903	193888.421872673221	8
0	77905	193892.030702784155	7
0	77909	193892.218000399137	8
0	77911	193894.271886610486	9
0	77913	193894.800462101586	10
0	77918	193902.607334322962	11
0	77919	193903.626985691339	10
0	77922	193909.69118861505	9
0	77926	193919.293287525433	10
0	77930	193926.191122841273	9
0	77933	193927.962395579041	8
0	77943	193933.893728791131	9
0	77947	193934.575758484784	8
0	77950	193936.4708609383	7
0	77953	193937.003141034679	6
0	77960	193937.926475679991	7
0	77965	193941.724208673348	8
0	77971	193966.108770130202	7
0	77977	193969.980782053953	8
0	77979	193976.284103018163	7
0	77982	193978.9944141389	6
0	77986	193983.477443053482	7
0	77989	193992.893351156489	8
0	77991	193996.513708241573	9
0	77999	194009.21185755132	10
0	78000	194011.612072865979	9
0	78008	194021.785932344067	8
0	78014	194029.199690903888	9
0	78019	194032.104315385207	10
0	78024	194037.583635847614	11
0	78028	194038.861026320218	10
0	78031	194048.410473026942	9
0	78035	194049.49220421708	10
0	78039	194051.750668926501	9
0	78046	194076.427110943139	8
0	78049	194076.581137220725	7
0	78053	194079.695499111434	8
0	78056	194082.390538999135	9
0	78061	194084.079843541065	10
0	78064	194089.282949588522	11
0	78070	194091.883566662243	10
0	78074	194094.126941715119	11
0	78081	194104.696411890897	12
0	78084	194107.109693240357	13
0	78087	194110.336224914091	14
0	78091	194116.680502402097	13
0	78097	194139.486977371996	14
0	78099	194153.560238388669	13
0	78103	194154.998179811434	14
0	78108	194163.482001238803	15
0	78113	194168.241253098477	16
0	78116	194176.199908447656	17
0	78121	194198.029645707585	18
0	78123	194201.309799545763	17
0	78129	194203.508689476885	18
0	78134	194204.926182954718	19
0	78137	194206.133178773562	20
0	78139	194220.296703939761	21
0	78141	194230.743587565213	22
0	78143	194230.799324651658	23
0	78148	194238.325478128624	24
0	78156	194254.669400353481	25
0	78157	194260.262100725565	24
0	78161	194276.753205937449	25
0	78168	194283.954291887211	24
0	78175	194298.385698673469	25
0	78177	194301.085383676071	26
0	78182	194303.502058607589	27
0	78183	194306.011864163435	26
0	78186	194315.203410544319	25
0	78189	194317.324877180338	24
0	78192	194321.841591754931	23
0	78196	194325.31225230982	24
0	78197	194327.041022597738	23
0	78200	194339.797712834733	22
0	78203	194342.214147591492	21
0	78206	194378.949079410159	20
0	78209	194381.542071786585	19
0	78212	194387.631661834439	18
0	78215	194394.789903687989	17
0	78219	194402.775917675129	18
0	78227	194430.091373925304	19
0	78232	194444.598676067518	20
0	78234	194452.76520125906	21
0	78238	194471.038069241093	20
0	78241	194471.898483426568	19
0	78245	194492.772496780539	20
0	78246	194497.323484998557	19
0	78249	194505.346134265188	18
0	78255	194521.91853828489	17
0	78265	194531.856325806308	18
0	78267	194543.950180171658	19
0	78268	194547.247566396518	18
0	78272	194548.022971861078	19
0	78276	194550.80805486676	18
0	78285	194574.188067211317	17
0	78289	194578.3838346449	18
0	78293	194584.349581320937	17
0	78302	194615.291618043325	16
0	78306	194621.155046765122	17
0	78308	194622.122705259426	18
0	78310	194624.490862572234	19
0	78315	194651.544047446367	20
0	78322	194667.169356998447	19
0	78326	194675.565285568201	20
0	78327	194676.793576587582	19
0	78331	194680.07893551498	20
0	78332	194695.140112554501	19
0	78335	194703.999024991575	18
0	78338	194711.589919096027	17
0	78345	194712.618682747763	18
0	78346	194720.138201644249	17
0	78349	194728.940749399485	16
0	78352	194760.748051706865	15
0	78367	194802.423264805474	16
0	78370	194804.383017496473	17
0	78375	194809.131718246858	18
0	78377	194813.504754679794	19
0	78378	194814.912121619057	18
0	78385	194819.84490806816	19
0	78387	194819.858599178904	20
0	78389	194839.979662726337	21
0	78390	194842.162181040955	20
0	78396	194857.682083425274	19
0	78399	194859.430671003918	18
0	78403	194859.995725030917	19
0	78404	194880.703388522597	18
0	78410	194881.508014091837	17
0	78413	194887.016220344618	16
0	78416	194894.865557404194	15
0	78419	194898.804630488003	14
0	78423	194900.402824527155	15
0	78425	194915.659412545946	16
0	78426	194923.123174276365	15
0	78429	194928.621840935569	14
0	78433	194931.919335462125	15
0	78437	194945.877083673842	14
0	78447	194962.752145324424	15
0	78455	194984.300634257969	16
0	78466	195002.767899679874	17
0	78467	195004.866961016175	16
0	78470	195016.16172433644	15
0	78477	195024.095113709543	16
0	78482	195030.816823907837	17
0	78487	195036.982858055829	18
0	78491	195049.217693646469	17
0	78494	195051.303613832806	16
0	78498	195054.69738660113	17
0	78503	195056.240038070427	18
0	78504	195056.417785769441	17
0	78511	195071.124147475264	18
0	78513	195077.874620768182	19
0	78515	195079.139842365677	20
0	78517	195079.939143482773	21
0	78521	195097.747179588963	20
0	78525	195124.62740748198	21
0	78530	195142.934199596433	22
0	78532	195143.583759582744	23
0	78533	195143.783083877189	22
0	78540	195150.963610365485	23
0	78547	195159.547015576841	22
0	78551	195161.567019205855	23
0	78553	195163.328459782784	24
0	78561	195190.540526917571	25
0	78566	195194.679044058176	26
0	78567	195198.157561628345	25
0	78574	195198.800775164097	26
0	78576	195209.576469244082	27
0	78577	195215.080591342141	26
0	78583	195223.347988932397	25
0	78590	195235.378301303354	26
0	78597	195253.982683350959	25
0	78601	195264.87417083811	26
0	78602	195271.547709234496	25
0	78606	195314.6169366328	26
0	78611	195330.886952746018	27
0	78616	195338.751846489978	28
0	78618	195350.587136473745	29
0	78619	195351.032838554034	28
0	78622	195356.91177062518	27
0	78625	195361.988673564347	26
0	78629	195362.261057210823	27
0	78630	195386.505554122977	26
0	78636	195410.509638029058	25
0	78642	195440.410633277575	24
0	78648	195453.466879657376	23
0	78652	195456.653553160359	24
0	78653	195486.020721114237	23
0	78656	195492.198628600948	22
0	78659	195497.876958875358	21
0	78662	195513.373909567461	20
0	78666	195517.592990693296	21
0	78671	195525.263343614805	22
0	78679	195548.862654997685	23
0	78681	195553.03402239352	24
0	78682	195561.749771322652	23
0	78685	195568.167476837179	22
0	78688	195571.872297348764	21
0	78691	195580.238066049797	20
0	78698	195588.901339516779	21
0	78703	195601.823625902918	22
0	78711	195629.65488744597	23
0	78712	195645.323929728947	22
0	78715	195647.326090165466	21
0	78718	195655.019753782964	20
0	78722	195668.319603964137	21
0	78729	195670.973114597803	20
0	78732	195682.298133034832	19
0	78736	195683.396601828699	20
0	78738	195693.051527346689	21
0	78739	195698.658647859132	20
0	78749	195705.787156266272	21
0	78750	195710.169656082234	20
0	78754	195713.60671116339	21
0	78755	195718.535371796116	20
0	78758	195726.254946534537	19
0	78764	195741.480424059368	18
0	78771	195762.21150598965	19
0	78772	195765.6019588444	18
0	78776	195772.254346889405	19
0	78781	195810.810053535618	20
0	78783	195819.994084059024	21
0	78784	195823.434399821412	20
0	78794	195831.320692203053	21
0	78796	195834.857658790385	22
0	78800	195864.016161645261	21
0	78803	195885.464356511385	20
0	78806	195895.75268694736	19
0	78809	195916.410414185283	18
0	78812	195931.190656050496	17
0	78816	195932.312031956342	18
0	78827	195957.5107567441	19
0	78828	195958.173545203763	18
0	78831	195967.286454345764	17
0	78837	195971.274922586557	16
0	78840	195977.352882182655	15
0	78844	195981.122840499242	16
0	78851	196008.610243943419	15
0	78857	196019.533980983673	14
0	78864	196032.243061970702	15
0	78865	196037.519156500255	14
0	78869	196047.322501755981	15
0	78870	196049.247294755089	14
0	78873	196053.992591358482	13
0	78876	196068.733113074015	12
0	78879	196071.832139242485	11
0	78885	196072.979166290171	10
0	78896	196099.235958889159	11
0	78899	196102.156313566946	12
0	78902	196103.146663434653	13
0	78904	196103.382291325153	14
0	78906	196106.886478733635	15
0	78908	196128.757394130937	16
0	78913	196129.622092947991	17
0	78914	196134.174988443267	16
0	78921	196139.736222905095	17
0	78922	196142.099617688081	16
0	78925	196146.941257965935	15
0	78931	196173.721583251305	14
0	78938	196182.48263944598	15
0	78946	196196.312372049593	16
0	78947	196209.683768381949	15
0	78951	196211.009922504447	16
0	78953	196214.871519510568	17
0	78971	196246.225772451419	18
0	78975	196261.000437864042	17
0	78979	196263.372024815576	18
0	78981	196271.561248938312	17
0	78984	196272.017955123996	16
0	78988	196277.272889748322	17
0	78990	196278.594289633024	16
0	78994	196281.827121185717	17
0	78999	196297.599870893784	18
0	79001	196315.488071830696	19
0	79003	196318.501628192163	20
0	79004	196325.881138246545	19
0	79007	196330.541912892879	18
0	79016	196344.436389326385	17
0	79022	196358.577713055993	16
0	79026	196363.433437905523	17
0	79031	196365.701230574781	18
0	79036	196389.580259520662	19
0	79037	196397.982368804561	18
0	79041	196408.117246265929	19
0	79043	196440.834026629237	20
0	79044	196453.252490053505	19
0	79048	196456.726133139637	20
0	79050	196458.420799574753	21
0	79054	196471.507929350666	20
0	79058	196480.314223683461	21
0	79059	196486.155500181073	20
0	79062	196513.323169621838	19
0	79065	196534.700566652553	18
0	79068	196543.893169082829	17
0	79071	196551.186255805231	16
0	79074	196559.433042748978	15
0	79083	196571.051407400934	14
0	79096	196584.513448615962	15
0	79100	196593.817712983554	14
0	79103	196599.233252402621	13
0	79109	196613.359780240969	14
0	79112	196613.461952073049	15
0	79114	196614.093275689949	16
0	79118	196619.14646657312	15
0	79122	196626.037244798013	16
0	79127	196649.786849843839	17
0	79129	196659.000543892832	18
0	79130	196661.143063192038	17
0	79133	196662.104605775796	16
0	79137	196663.559156678306	17
0	79138	196681.740605737183	16
0	79144	196700.204485570963	15
0	79147	196700.384443656568	14
0	79150	196705.699473365354	13
0	79154	196712.620163515668	14
0	79156	196727.228984439066	15
0	79164	196767.601013309561	16
0	79166	196777.839350030997	17
0	79167	196778.086760200055	16
0	79171	196790.908263772101	17
0	79175	196799.3085331236	16
0	79178	196804.768583597026	15
0	79190	196822.804340765174	14
0	79193	196825.235227986891	13
0	79196	196830.677023629419	12
0	79199	196831.3977289891	11
0	79202	196838.811457502216	10
0	79205	196839.833418824635	9
0	79209	196856.739373569369	10
0	79210	196876.717149036784	9
0	79214	196877.364544428048	10
0	79215	196885.520815916004	9
0	79219	196892.75172792562	10
0	79223	196900.764431437071	9
0	79227	196908.836437083656	10
0	79228	196909.636000056455	9
0	79235	196922.748115517997	10
0	79236	196944.32458124645	9
0	79239	196960.144133631701	8
0	79243	196963.560398971426	9
0	79247	196989.919876595313	8
0	79250	196994.545331143902	7
0	79253	197003.927759760077	6
0	79256	197017.537407119599	5
0	79262	197032.598506749701	4
0	79271	197046.77878955653	3
0	79274	197049.453031812998	2
0	79280	197054.269346736572	1
0	79287	197064.91407927678	2
0	79288	197075.744049200423	1
0	79292	197080.807848107699	2
0	79296	197100.078213347283	1
0	79303	197106.769094174656	2
0	79305	197109.691981980343	3
0	79307	197118.715113477094	4
0	79308	197124.167196566725	3
0	79311	197136.683948414343	2
0	79314	197144.083086928313	1
0	79320	197165.161747263644	0
0	79767	198214.352715564702	1
0	79769	198225.098114344572	2
0	79773	198229.151699605549	1
0	79776	198237.42005527989	0
0	79780	198246.013481736273	1
0	79782	198247.236871436148	2
0	79784	198263.981495043051	3
0	79785	198265.713750689317	2
0	79788	198266.126375864293	1
0	79791	198275.948715103597	0
0	80756	200586.619760990355	1
0	80759	200595.215768199397	2
0	80760	200598.102103115109	1
0	80763	200600.238716861447	0
0	80844	200780.764277170833	1
0	80847	200791.954171316255	2
0	80848	200794.011698418199	1
0	80851	200797.340946598878	0
0	81273	201806.104332268574	1
0	81275	201813.929660854166	2
0	81277	201814.899446903675	3
0	81278	201821.295193083145	2
0	81281	201827.877419935898	1
0	81287	201836.169994400939	0
0	81935	203527.102705242155	1
0	81936	203527.499302785308	0
0	81945	203538.912116409319	1
0	81947	203539.418467752924	2
[...]
2	239815	597259.033851836708	1676.1694990829
2	239817	597266.744730949034	3344.3501066223
2	239840	597337.274166413782	947.71297097056
2	239842	597356.465933993092	1748.533018196
2	239844	597364.741288108436	1404.1210507712
2	239849	597373.352415698752	1173.4619052656
2	239863	597397.992808906106	24.932230257627
2	239874	597408.690068969289	772.81273223264
2	239879	597409.929253183209	822.30364296651
2	239881	597412.121843436921	1314.9430332374
2	239886	597415.363485313375	354.0714249584
2	239897	597444.041711569124	953.83737326043
2	239904	597455.540606729388	1421.5689006864
2	239913	597468.261974265362	1494.8746944377
2	239915	597479.221851522562	506.00338515124
2	239935	597538.568813651202	212.97256834341
2	239955	597570.150062331335	81.480872508641
2	239963	597589.444615254691	294.15151583979
2	239974	597627.965638631552	2770.467084356
2	239988	597665.391734340704	2653.2439183751
2	240002	597691.719493875245	709.05615412547
2	240019	597725.364727604355	1124.5113434595
2	240021	597759.812452528243	1008.4879635435
2	240023	597763.105873553754	2370.6599089484
2	240031	597775.577186269562	985.94835910416
2	240033	597779.146147968477	2841.0386788737
2	240035	597809.529947918285	819.33818296701
2	240037	597826.608821098732	1278.2159158437
2	240048	597847.629854708032	617.13665587523
2	240053	597856.199061508761	366.50858287106
2	240070	597897.279032400161	338.71070223811
2	240075	597935.746357031133	1607.5419224638
2	240092	597975.244983165228	561.9704749765
2	240103	598014.010630379181	1590.5333571145
2	240108	598035.288287976514	1454.0918966058
2	240119	598054.372930548888	3539.0068296951
2	240166	598118.677454297188	538.98329549698
2	240173	598148.602295912728	117.14998029484
2	240179	598166.382389499483	759.1253027424
2	240181	598170.678454817056	2397.4743536094
2	240183	598190.158306410675	1152.8316441009
2	240194	598208.151017667811	771.36115166676
2	240208	598239.148561404295	139.03507381025
2	240219	598250.502325683073	355.35858762627
2	240221	598253.188193743875	686.2858201186
2	240223	598259.623376990689	492.07487165007
2	240231	598275.786849325541	1710.3099899906
2	240233	598285.209768663979	1225.9528393101
2	240244	598296.688486478445	1832.3949992754
2	240246	598301.550206625103	226.96692523218
2	240248	598307.612176793961	918.33850121501
2	240262	598324.138834051547	704.75213472059
2	240264	598325.425311768147	289.26454185595
2	240272	598351.429441649738	690.05193202943
2	240274	598368.946832420482	1416.0458803827
2	240282	598396.607517869125	198.83645261295
2	240284	598405.111936395999	691.14222294067
2	240292	598431.590206266695	574.96591550316
2	240297	598440.262122901401	340.70481991558
2	240308	598447.247797115609	996.4479533667
2	240310	598470.577781433792	273.14791059385
2	240324	598494.972046291603	2243.1876452567
2	240332	598501.551408615945	1120.8360913572
2	240334	598504.950272797088	1877.2951485172
2	240336	598530.992265340931	553.5470692856
2	240353	598584.483645269811	3741.7591361244
2	240355	598608.415350037437	764.03401392784
2	240368	598625.761553586322	459.40090410447
2	240370	598629.608834707859	409.64603575915
2	240378	598638.636062503027	749.50490708458
2	240390	598661.84016370235	374.19064960488
2	240398	598665.981775183225	4416.889633978
2	240412	598695.167833883411	1910.2480787083
2	240417	598699.95752023097	256.55518599359
2	240422	598703.446449261415	308.81901526964
2	240424	598708.163443815464	1028.1807819684
2	240438	598776.342126317801	888.77830612262
2	240440	598785.384138551924	3002.808556427
2	240451	598810.728020331956	752.48371447187
2	240453	598811.217444825823	329.39700667738
2	240458	598825.357385117709	1606.8318079608
2	240460	598851.716657198773	239.93736889354
2	240474	598872.668501727087	1665.5242675634
2	240482	598882.535784831965	925.5906491892
2	240490	598911.286844246178	530.09784597299
2	240492	598925.615777988706	1304.1402795428
2	240500	598953.713468858714	1015.1743587716
2	240502	598959.167358733059	899.28578786678
2	240519	599066.185032806671	3030.2986105511
2	240521	599068.440982434404	572.7572133619
2	240526	599088.075745003631	1428.1693981103
2	240543	599118.489187435534	31.05342084129
2	240551	599136.072553810821	460.83852274561
2	240565	599157.729004845075	843.69387265037
2	240567	599160.856177047732	2843.9216787319
2	240575	599172.68842404916	932.06609636948
2	240577	599182.025435151639	432.69758670427
2	240594	599212.809905355362	1919.2006410552
2	240602	599225.77175434643	361.13922570822
2	240616	599276.93119584435	653.64481813109
2	240621	599286.558991564049	808.84749007192
2	240629	599317.035796602195	1483.8597199542
2	240637	599331.413108153444	756.99085971141
2	240651	599353.342191614617	1678.8359397455
2	240653	599355.527338058959	1243.8913829301
2	240655	599363.253398924919	1099.9869314562
2	240657	599366.34974969376	195.29449260896
2	240695	599452.051723174363	2047.7131736277
2	240697	599453.09495106023	231.81335529027
2	240702	599465.601397486632	909.91830515212
2	240704	599474.654830087896	851.84186770576
2	240712	599481.195272184428	817.2248683334
2	240723	599488.764298744501	510.25329440933
2	240725	599490.703922004814	2301.2173242011
2	240730	599492.469798089669	608.71447534869
2	240732	599500.739746360154	177.80450606962
2	240737	599522.68163978516	3038.0810280653
2	240742	599543.07841732014	339.15252155755
2	240744	599547.179004466576	748.26544927774
2	240749	599571.85187601239	2998.6988777308
2	240751	599573.615683058398	4471.9523179619
2	240753	599589.238423524754	792.83962915647
2	240758	599606.232816061187	467.23004372753
2	240769	599643.622388120436	311.1344920339
2	240771	599644.004771493479	1419.5745403129
2	240779	599666.843793429352	363.29158200472
2	240781	599683.953976112321	257.93795087147
2	240786	599688.653589029236	827.61677560063
2	240803	599741.594132534992	1094.2421949928
2	240805	599745.622987328554	616.02599687736
2	240810	599752.502182218036	414.07134381458
2	240812	599775.236325156014	333.46938274774
2	240826	599821.632636275443	3411.1465296549
2	240843	599841.091657421263	1422.836254694
2	240845	599843.06294519985	2392.25185008
2	240883	599972.550004519334	1099.91428565
2	240909	600032.870715926301	637.4372244312
2	240914	600052.017280839624	937.24083741472
2	240937	600094.059271148546	275.92291000051
2	240939	600110.752522465857	744.01722963552
2	240944	600118.349104734136	1675.2784420992
2	240949	600140.694348699174	1003.5757772499
2	240951	600150.016361998354	943.6718583004
2	240953	600154.421857394714	1886.7338346199
2	240955	600172.48721749358	1595.6615471022
2	240960	600176.218706477291	539.03085709061
2	240974	600240.892778875089	544.08031685919
2	240982	600284.632733746166	229.70098996717
2	240993	600332.755292023062	440.12152657257
2	240995	600340.615094471471	1071.9380513338
2	240997	600350.449517833702	164.12631669062
2	241002	600373.020866938177	732.55678961865
2	241013	600417.53693417792	678.06063821676
2	241048	600471.174331088979	647.52842873675
2	241074	600526.818521981816	776.37237910067
2	241076	600530.593953386948	1543.1877138248
2	241108	600627.62722576224	706.82187262435
2	241110	600630.16745325746	199.70170031973
2	241115	600653.30783251282	2645.8987554876
2	241126	600686.903682483951	688.58719842909
2	241128	600687.188614649828	171.74566591224
2	241148	600735.348024899406	254.7126310458
2	241153	600744.972206459382	154.1496488505
2	241155	600745.900037598756	821.16690658973
2	241157	600755.314040715966	779.85270205923
2	241165	600788.811928251435	414.19395050238
2	241170	600793.072331949855	221.37639334267
2	241172	600795.527625579764	206.48820306544
2	241183	600813.076560752284	75.214454875836
2	241188	600820.516613091768	1015.8270255416
2	241208	600903.944150112374	1347.4152513845
2	241210	600904.007204639824	442.07319635445
2	241218	600922.346890743982	884.85530115516
2	241229	600932.730195305245	1106.4158036613
2	241240	600966.158540344113	408.00193468224
2	241254	601030.093435327948	581.48744612063
2	241256	601032.106762165087	1808.7971139914
2	241273	601071.52560522493	130.50185233826
2	241281	601120.445101371935	659.65954975541
2	241292	601144.695501108731	99.814979146708
2	241294	601147.853148787798	1761.6003284818
2	241299	601158.890028898986	1712.7027357155
2	241304	601163.419834984921	745.54884338128
2	241306	601164.736015024567	1160.909012436
2	241314	601182.634538836065	378.9710097463
2	241322	601197.768100127015	3805.0765760251
2	241338	601235.195393957887	2995.8345366522
2	241344	601247.318748914027	3721.4152618223
2	241346	601250.74239643567	111.45238381562
2	241354	601254.57056543987	1026.0741040636
2	241362	601267.569916552561	1819.95992194
2	241364	601283.992727688408	85.41729255724
2	241378	601311.529566074303	1405.6792861639
2	241401	601341.154856472266	286.59492858798
2	241406	601347.346718462295	1813.8731275978
2	241408	601348.831924876335	2247.2144537618
2	241410	601349.663082172617	553.3273723234
2	241418	601361.507477647786	570.67988326653
2	241420	601363.4144137998	706.71217120362
2	241428	601395.469970143465	1909.4673269367
2	241436	601432.871453673856	983.61031907483
2	241441	601444.61329381174	1092.6406299317
2	241449	601450.979941440302	32.867890221066
2	241451	601452.602298636311	378.3305813189
2	241459	601469.341230115684	215.28501908265
2	241464	601531.055406492711	1050.1511246121
2	241466	601562.149306018354	2247.5179369754
2	241468	601564.564633573633	1020.1358240161
2	241470	601578.426184500468	2439.1304366728
2	241472	601589.713013923387	4383.1601572898
2	241474	601607.398048669087	512.12286463658
2	241491	601645.299461187878	1959.0442107177
2	241516	601680.932466555262	458.52514611486
2	241522	601687.344122679735	545.16722681115
2	241536	601756.318273959615	1846.8090132552
2	241541	601759.783790344506	3135.7782266628
2	241543	601767.476106846714	1086.6830110782
2	241545	601768.777530919291	106.21697103472
2	241547	601772.756412803733	1007.2831242799
2	241567	601806.253578510748	482.5378601967
2	241569	601809.024028791906	640.74957550029
2	241583	601842.31815369097	1176.6196323016
2	241585	601851.224958715426	561.16817569
2	241587	601869.909372647962	2943.1936939196
2	241589	601873.836829687888	694.32075234353
2	241600	601900.016129537851	1693.4217068558
2	241623	601954.340566688242	888.12199535996
2	241625	601957.186372206545	794.63948596271
2	241627	601959.861960767793	1067.1163736423
2	241629	601965.805982612216	72.945944783875
2	241640	602013.575343369778	199.31132264982
2	241672	602083.756280503702	406.40585368851
2	241686	602111.578834807955	887.00169560157
2	241718	602164.210441464422	2179.074235569
2	241720	602164.684447450557	876.86618388649
2	241722	602174.189462737318	531.20650391345
2	241734	602191.309671643865	1990.6982371067
2	241736	602194.772814529725	730.73232218312
2	241738	602198.687198193824	149.61050350205
2	241760	602242.290329897374	2788.4271859546
2	241765	602255.523928047081	260.2086403604
2	241770	602261.951452457858	172.3994459189
2	241775	602262.351950429405	631.19881351777
2	241777	602273.824170620305	661.45767109007
2	241788	602303.09105884331	6074.8152043818
2	241811	602364.181646349729	2538.4481486311
2	241813	602370.629983563911	1166.1610415737
2	241818	602374.701975309577	191.68920459969
2	241829	602389.02126669746	2420.6970954309
2	241834	602399.315633169347	620.6588550442
2	241839	602412.334853479019	274.02239980307
2	241859	602466.25288634819	6613.2244377708
2	241867	602472.938409438247	440.18761753982
2	241884	602499.718535353598	2207.5206898866
2	241892	602520.092571321637	629.81338973951
2	241909	602557.137488189348	880.96439102733
2	241914	602571.231499825516	953.67433763301
2	241922	602594.947029528065	2534.9189709246
2	241936	602641.225485409773	1651.0017330867
2	241944	602669.043637211024	547.79633048536
2	241949	602684.354824215599	1996.171113924
2	241972	602731.6869753962	631.6036049257
2	241979	602748.922189719401	1894.0360488808
2	241987	602777.274854310709	988.49753262643
2	241995	602792.475585075981	727.96765264122
2	241998	602806.158308543862	1880.9353304241
2	242000	602814.534441607707	1368.7403390486
2	242002	602824.872041422899	597.38463545691
2	242004	602828.849336529381	665.81670014136
2	242015	602870.080097151786	758.57333287588
2	242026	602882.355141055276	1226.6365573199
2	242043	602943.15199284143	994.53705664407
2	242048	602960.250328697846	4152.868631175
2	242053	602967.023634201535	615.0421356955
2	242084	603053.605106287247	678.91822155696
2	242087	603058.277971541867	1146.3290594062
2	242104	603073.791710601045	2177.7322145107
2	242107	603084.271774591088	221.47516814571
2	242118	603107.494434394278	5006.9461952761
2	242123	603120.939664457483	944.88136692354
2	242133	603131.837956877163	415.83488507651
2	242138	603145.444480243456	712.80451443669
2	242147	603155.980364847097	817.74287872392
2	242161	603189.08541780919	692.25771918938
2	242166	603195.692374236526	199.65251779548
2	242174	603201.402411250891	1323.2732494188
2	242179	603207.150605571776	1066.8188827208
2	242189	603226.836945915953	2238.9870942323
2	242208	603281.59743133916	215.05626189745
2	242214	603304.147069853671	1977.0479840492
2	242219	603311.580608059429	2832.8114327716
2	242238	603371.135669189766	182.58424357013
2	242241	603372.870104160411	402.83634633083
2	242253	603386.096806860771	1626.9157248037
2	242269	603420.151755568025	831.76596302539
2	242280	603441.397861290007	163.86992949312
2	242293	603471.547148479364	380.07394015649
2	242307	603503.805609976931	230.15363302291
2	242320	603546.370790038665	766.48574641188
2	242332	603588.761637100958	1227.2912228005
2	242374	603671.951081749052	793.54064653294
2	242380	603676.123755128974	522.3254099609
2	242383	603676.268176977798	1091.1602383993
2	242386	603683.528585184492	1023.0115491269
2	242389	603683.735546798937	1308.0345470817
2	242399	603705.737058782083	987.12012127192
2	242404	603721.240621299758	850.34425968733
2	242407	603725.845674185886	314.84677082503
2	242415	603748.438821936382	471.5199033784
2	242418	603750.835476565256	375.86370823689
2	242421	603759.907205211816	697.83127265747
2	242424	603762.568875060709	5128.6115620015
2	242433	603767.798710824297	2433.7138779061
2	242440	603782.725235303197	693.59315432608
2	242446	603787.217675287834	760.22856337799
2	242449	603787.593767602007	1342.9516608068
2	242452	603791.326298277125	790.30190577236
2	242483	603849.926659257227	1775.035803427
2	242490	603854.81719927092	309.86692268073
2	242496	603875.401862222918	714.52380839052
2	242499	603877.735805927488	1386.140291748
2	242507	603900.825097532531	1564.716451509
2	242518	603925.66725766462	3205.788313328
2	242524	603934.615998283111	607.16304127722
2	242531	603937.098900430485	1179.9821040787
2	242534	603945.121775236828	212.79876051207
2	242537	603949.027576074868	637.25943059387
2	242546	603964.267868629135	199.49894055405
2	242551	603967.674735239709	676.20807954926
2	242581	604031.435285615985	439.71391667849
2	242586	604065.950440129306	633.79580263594
2	242589	604066.600420291984	626.26854769803
2	242605	604110.249188013906	264.57718378539
2	242631	604161.220121480545	806.58939612382
2	242634	604162.41668857076	693.97534002984
2	242654	604193.555679180997	382.23958320786
2	242676	604224.114300763497	827.42038092353
2	242682	604224.495752084216	1775.7817068207
2	242693	604245.794212092492	651.93917560701
2	242696	604268.045630210603	1207.1022610166
2	242699	604269.404483251089	2014.2113412903
2	242718	604288.748310772255	2387.4277221534
2	242723	604311.083548914756	634.96409819547
2	242726	604313.450559512667	627.84455741764
2	242746	604347.659328504478	455.09288347434
2	242759	604393.626411363137	1326.2267990449
2	242762	604399.347195233122	491.51515383388
2	242765	604412.175970950622	2740.8935220692
2	242777	604435.701036371078	2820.1352690049
2	242780	604436.595551963484	1506.7774574947
2	242785	604442.890025286743	845.77826804079
2	242788	604443.374969408662	2399.8998836051
2	242791	604448.198983747929	805.19059305827
2	242799	604452.612501083544	654.03858818647
2	242804	604479.345204325098	877.53437424239
2	242807	604484.562816507661	1863.3272013223
2	242813	604528.144863759474	596.41542171369
2	242816	604554.300435890933	2766.8269023372
2	242821	604569.40289842837	1943.1443470852
2	242824	604584.991157958934	2040.0744949479
2	242827	604589.679314147569	1119.1471373999
2	242830	604597.233145117299	320.03878322266
2	242836	604601.06210097295	456.52797576444
2	242841	604608.986801326988	1617.2360535626
2	242844	604624.610907002811	351.68686916245
2	242850	604639.80733700089	2522.2414283886
2	242856	604646.122151320382	620.94041132922
2	242859	604649.623006859542	1477.583092136
2	242870	604693.491058613089	1989.9899617527
2	242876	604704.301396910846	478.24695614727
2	242881	604730.01109167931	827.29990658765
2	242894	604749.860633116041	1536.4356960096
2	242897	604752.049529501008	2221.8107585446
2	242900	604762.872289819651	1631.3318197248
2	242903	604764.739263936113	928.72433325746
2	242906	604777.859278777626	596.06340161326
2	242917	604810.702445945816	491.41184025233
2	242925	604861.407642722366	987.30366779241
2	242928	604864.365109225084	654.28436046319
2	242931	604869.649704803529	542.67020321334
2	242938	604874.531716774757	848.85698206382
2	242941	604882.395049876803	754.58070058537
2	242944	604886.746777686428	2388.2284130897
2	242947	604932.709019326423	802.48868052315
2	242950	604937.927051654733	917.07876469451
2	242953	604960.919932100668	4939.1530416008
2	242955	605070.039629083258	379.81319942666
2	242957	605117.420860344242	667.68351520133
2	242959	605134.371382456336	337.96354659668
2	242961	605135.603935599082	956.98539705073
2	242963	605178.008474927358	1662.3302829704
2	242965	605201.706164734527	603.10977465709
2	242967	605231.201055412139	1587.7183932273
2	242969	605238.856317003806	607.9245380873
2	242971	605247.591478950532	3803.3236211005
2	242973	605253.232118641918	887.92175663498
2	242975	605290.080589316086	3916.6994985794
2	242977	605302.278699597293	2102.445588273
2	242979	605304.545439137647	3387.3484135881
2	242981	605360.651236649975	1238.2410209707
2	242983	605363.047787011343	1196.4540335564
2	242985	605396.964944479552	1442.0986469082
2	242987	605415.195298202356	1432.3569261175
2	242989	605420.833737194102	1337.4679299671
2	242991	605421.343545262894	1044.2774789658
2	242993	605440.71971448065	2778.9584918776
2	242995	605448.034726589119	2061.7180001928
2	242997	605480.988278740684	685.49299883022
2	242999	605490.709043588881	2342.0924700606
2	243001	605492.929114148398	3166.1564235687
2	243003	605495.200351187951	1270.7964994578
2	243005	605497.809635029427	851.81638799215
2	243007	605533.266019839057	1253.8338292521
2	243009	605536.515538223283	3347.1241897697
2	243011	605561.993525618325	2302.1325368513
2	243013	605629.366995959843	954.90821439814
2	243015	605834.83007394957	1636.19053361
2	243017	605846.666775420234	1706.2650656595
2	243019	605854.706420967439	2492.4965909747
2	243021	605873.787405295426	1668.5408467444
2	243023	605882.797098138546	1145.3412695537
2	243025	605955.059911907378	1210.5706399622
2	243027	606019.698672597496	1931.7682834448
2	243029	606049.108876594551	1721.2431461301
2	243031	606050.105419359724	1769.2041273938
2	243033	606068.550221435337	2275.7206468729
2	243035	606175.751624343973	2528.1710430588
2	243037	606195.855554114566	1761.2657601992
2	243039	606273.097438131245	2718.6362990303
2	243041	606360.650955327426	2596.4285910447
2	243043	606389.426543834911	2551.1436635078
2	243045	606500.114045361006	2715.033457707
2	243047	606554.109925899971	4291.9542224225
2	243049	606660.814046616395	3750.2049281179
2	243051	606672.523968111617	2697.1055045189
2	243053	606765.41711170929	3933.4661697391
2	243055	606838.930866050751	3172.9306123672
2	243057	606984.009734565055	2289.4027134068
2	243059	607022.654616028941	3066.9153981652
2	243061	607026.541584563921	2787.7181687068
2	243063	607073.622642129947	3418.2300059582
2	243065	607305.576955195014	4603.2382731001
2	243067	607723.890662369164	4220.1537139399
2	243069	608070.46022207061	3972.7520482421
2	243071	608451.332917334126	6030.8713693903
2	243073	608507.223043846986	4019.4354557814

